Circuit: * Z:\home\nanik\Documents\myProjects\analogBirdSAO\Draft1.asc

Direct Newton iteration for .op point succeeded.

Date: Wed Jul 10 22:56:55 2024
Total elapsed time: 0.039 seconds.

tnom = 27
temp = 27
method = modified trap
totiter = 2085
traniter = 2082
tranpoints = 1042
accept = 1042
rejected = 0
matrix size = 5
fillins = 0
solver = Normal
Matrix Compiler1: 502 bytes object code size  0.1/0.1/[0.1]
Matrix Compiler2: off  [0.1]/0.1/0.1

