Circuit: * Z:\home\nanik\Documents\analogBirdSAO\oscillator.asc

Direct Newton iteration for .op point succeeded.
Heightened Def Con from 0.0140778 to 0.0140778
Heightened Def Con from 0.0140778 to 0.0140778
Heightened Def Con from 0.0140778 to 0.0140778
Heightened Def Con from 0.0140778 to 0.0140778
Heightened Def Con from 0.0140778 to 0.0140778
Heightened Def Con from 0.0140778 to 0.0140778
Heightened Def Con from 0.0140778 to 0.0140778
Heightened Def Con from 0.0140778 to 0.0140778
Heightened Def Con from 0.0140778 to 0.0140778
Heightened Def Con from 0.0140778 to 0.0140778
Heightened Def Con from 0.0140778 to 0.0140778
Heightened Def Con from 0.0140778 to 0.0140778
Heightened Def Con from 0.0140778 to 0.0140778
Heightened Def Con from 0.0140778 to 0.0140778
Heightened Def Con from 0.0140778 to 0.0140778
Heightened Def Con from 0.0140778 to 0.0140778
Heightened Def Con from 0.0140778 to 0.0140778
Heightened Def Con from 0.0140778 to 0.0140778
Heightened Def Con from 0.0140778 to 0.0140778
Heightened Def Con from 0.0140778 to 0.0140778
Heightened Def Con from 0.0140778 to 0.0140778
Heightened Def Con from 0.0140778 to 0.0140778
Heightened Def Con from 0.0140778 to 0.0140778
Heightened Def Con from 0.0140778 to 0.0140778
Heightened Def Con from 0.0140778 to 0.0140778
Heightened Def Con from 0.0140778 to 0.0140778
Heightened Def Con from 0.0140778 to 0.0140778
Heightened Def Con from 0.0140778 to 0.0140778
Heightened Def Con from 0.0140778 to 0.0140778
Heightened Def Con from 0.0140778 to 0.0140778
Heightened Def Con from 0.0140778 to 0.0140778
Heightened Def Con from 0.0140778 to 0.0140778
Heightened Def Con from 0.0140778 to 0.0140778
Heightened Def Con from 0.0140778 to 0.0140778
Heightened Def Con from 0.0140778 to 0.0140778
Heightened Def Con from 0.0140778 to 0.0140778
Heightened Def Con from 0.0140778 to 0.0140778
Heightened Def Con from 0.0140778 to 0.0140778
Heightened Def Con from 0.0140778 to 0.0140778
Heightened Def Con from 0.0140778 to 0.0140778
Heightened Def Con from 0.0140778 to 0.0140778
Heightened Def Con from 0.0140778 to 0.0140778
Heightened Def Con from 0.0140778 to 0.0140778
Heightened Def Con from 0.0140778 to 0.0140778
Heightened Def Con from 0.0140778 to 0.0140778
Heightened Def Con from 0.0140778 to 0.0140778
Heightened Def Con from 0.0140778 to 0.0140778
Heightened Def Con from 0.0140778 to 0.0140778
Heightened Def Con from 0.0140778 to 0.0140778
Heightened Def Con from 0.0140778 to 0.0140778
Heightened Def Con from 0.0140778 to 0.0140778
Heightened Def Con from 0.0140778 to 0.0140778
Heightened Def Con from 0.0140778 to 0.0140778
Heightened Def Con from 0.0140778 to 0.0140778
Heightened Def Con from 0.0140778 to 0.0140778
Heightened Def Con from 0.0140778 to 0.0140778
Heightened Def Con from 0.0140778 to 0.0140778
Heightened Def Con from 0.0140778 to 0.0140778
Heightened Def Con from 0.0140778 to 0.0140778
Heightened Def Con from 0.0140778 to 0.0140778
Heightened Def Con from 0.0140778 to 0.0140778
Heightened Def Con from 0.0140778 to 0.0140778
Heightened Def Con from 0.0140778 to 0.0140778
Heightened Def Con from 0.0140778 to 0.0140778
Heightened Def Con from 0.0140778 to 0.0140778
Heightened Def Con from 0.0140778 to 0.0140778
Heightened Def Con from 0.0140778 to 0.0140778
Heightened Def Con from 0.0140778 to 0.0140778
Heightened Def Con from 0.0140778 to 0.0140778
Heightened Def Con from 0.0140778 to 0.0140778
Heightened Def Con from 0.0140778 to 0.0140778
Heightened Def Con from 0.0140778 to 0.0140778
Heightened Def Con from 0.0140778 to 0.0140778
Heightened Def Con from 0.0140778 to 0.0140778
Heightened Def Con from 0.0140778 to 0.0140778
Heightened Def Con from 0.0140778 to 0.0140778
Heightened Def Con from 0.0140778 to 0.0140778
Heightened Def Con from 0.0140778 to 0.0140778
Heightened Def Con from 0.0140778 +to 0.0140778
Heightened Def Con from 0.0140778 to 0.0140778
Heightened Def Con from 0.0140778 to 0.0140778
Heightened Def Con from 0.0140778 to 0.0140778
Heightened Def Con from 0.0140778 to 0.0140778
Heightened Def Con from 0.0140778 to 0.0140778
Heightened Def Con from 0.0140778 to 0.0140778
Heightened Def Con from 0.0140778 to 0.0140778
Heightened Def Con from 0.0140778 to 0.0140778
Heightened Def Con from 0.0140778 to 0.0140778
Heightened Def Con from 0.0140778 to 0.0140778
Heightened Def Con from 0.0140778 to 0.0140778
Heightened Def Con from 0.0140778 to 0.0140778
Heightened Def Con from 0.0140778 to 0.0140778
Heightened Def Con from 0.0140778 to 0.0140778
Heightened Def Con from 0.0140778 to 0.0140778
Heightened Def Con from 0.0140778 to 0.0140778
Heightened Def Con from 0.0140778 to 0.0140778
Heightened Def Con from 0.0140778 to 0.0140778
Heightened Def Con from 0.0140778 to 0.0140778
Heightened Def Con from 0.0140778 to 0.0140778
Heightened Def Con from 0.0140778 to 0.0140778
Heightened Def Con from 0.0140778 to 0.0140778
Heightened Def Con from 0.0140778 to 0.0140778
Heightened Def Con from 0.0140778 to 0.0140778
Heightened Def Con from 0.0140778 to 0.0140778
Heightened Def Con from 0.0140778 to 0.0140778
Heightened Def Con from 0.0140778 to 0.0140778
Heightened Def Con from 0.0140778 to 0.0140778
Heightened Def Con from 0.0140778 to 0.0140778
Heightened Def Con from 0.0140778 to 0.0140778
Heightened Def Con from 0.0140778 to 0.0140778
Heightened Def Con from 0.0140778 to 0.0140778
Heightened Def Con from 0.0140778 to 0.0140778
Heightened Def Con from 0.0140778 to 0.0140778
Heightened Def Con from 0.0140778 to 0.0140778
Heightened Def Con from 0.0140778 to 0.0140778
Heightened Def Con from 0.0140778 to 0.0140778
Heightened Def Con from 0.0140778 to 0.0140778
Heightened Def Con from 0.0140778 to 0.0140778
Heightened Def Con from 0.0140778 to 0.0140778
Heightened Def Con from 0.0140778 to 0.0140778
Heightened Def Con from 0.0140778 to 0.0140778
Heightened Def Con from 0.0140778 to 0.0140778
Heightened Def Con from 0.0140778 to 0.0140778
Heightened Def Con from 0.0140778 to 0.0140778
Heightened Def Con from 0.0140778 to 0.0140778
Heightened Def Con from 0.0140778 to 0.0140778
Heightened Def Con from 0.0140778 to 0.0140778
Heightened Def Con from 0.0140778 to 0.0140778
Heightened Def Con from 0.0140778 to 0.0140778
Heightened Def Con from 0.0140778 to 0.0140778
Heightened Def Con from 0.0140778 to 0.0140778
Heightened Def Con from 0.0140778 to 0.0140778
Heightened Def Con from 0.0140778 to 0.0140778
Heightened Def Con from 0.0140778 to 0.0140778
Heightened Def Con from 0.0140778 to 0.0140778
Heightened Def Con from 0.0140778 to 0.0140778
Heightened Def Con from 0.0140778 to 0.0140778
Heightened Def Con from 0.0140778 to 0.0140778
Heightened Def Con from 0.0140778 to 0.0140778
Heightened Def Con from 0.0140778 to 0.0140778
Heightened Def Con from 0.0140778 to 0.0140778
Heightened Def Con from 0.0140778 to 0.0140778
Heightened Def Con from 0.0140778 to 0.0140778
Heightened Def Con from 0.0140778 to 0.0140778
Heightened Def Con from 0.0140778 to 0.0140778
Heightened Def Con from 0.0140778 to 0.0140778
Heightened Def Con from 0.0140778 to 0.0140778
Heightened Def Con from 0.0140778 to 0.0140778
Heightened Def Con from 0.0140778 to 0.0140778
Heightened Def Con from 0.0140778 to 0.0140778
Heightened Def Con from 0.0140778 to 0.0140778
Heightened Def Con from 0.0140778 to 0.0140778
Heightened Def Con from 0.0140778 to 0.0140778
Heightened Def Con from 0.0140778 to 0.0140778
Heightened Def Con from 0.0140778 to 0.0140778
Heightened Def Con from 0.0140778 to 0.0140778
Heightened Def Con from 0.0140778 to 0.0140778
Heightened Def Con from 0.0140778 to 0.0140778
Heightened Def Con from 0.0140778 to 0.0140778
Heightened Def Con from 0.0140778 to 0.0140778
Heightened Def Con from 0.0140778 to 0.0140778
Heightened Def Con from 0.0140778 to 0.0140778
Heightened Def Con from 0.0140778 to 0.0140778
Heightened Def Con from 0.0140778 to 0.0140778
Heightened Def Con from 0.0140778 to 0.0140778
Heightened Def Con from 0.0140778 to 0.0140778
Heightened Def Con from 0.0140778 to 0.0140778
Heightened Def Con from 0.0140778 to 0.0140778
Heightened Def Con from 0.0140778 to 0.0140778
Heightened Def Con from 0.0140778 to 0.0140778
Heightened Def Con from 0.0140778 to 0.0140778
Heightened Def Con from 0.0140778 to 0.0140778
Heightened Def Con from 0.0140778 to 0.0140778
Heightened Def Con from 0.0140778 to 0.0140778
Heightened Def Con from 0.0140778 to 0.0140778
Heightened Def Con from 0.0140778 to 0.0140778
Heightened Def Con from 0.0140778 to 0.0140778
Heightened Def Con from 0.0140778 to 0.0140778
Heightened Def Con from 0.0140778 to 0.0140778
Heightened Def Con from 0.0140778 to 0.0140778
Heightened Def Con from 0.0140778 to 0.0140778
Heightened Def Con from 0.0140778 to 0.0140778
Heightened Def Con from 0.0140778 to 0.0140778
Heightened Def Con from 0.0140778 to 0.0140778
Heightened Def Con from 0.0140778 to 0.0140778
Heightened Def Con from 0.0140778 to 0.0140778
Heightened Def Con from 0.0140778 to 0.0140778
Heightened Def Con from 0.0140778 to 0.0140778
Heightened Def Con from 0.0140778 to 0.0140778
Heightened Def Con from 0.0140778 to 0.0140778
Heightened Def Con from 0.0140778 to 0.0140778
Heightened Def Con from 0.0140778 to 0.0140778
Heightened Def Con from 0.0140778 to 0.0140778
Heightened Def Con from 0.0140778 to 0.0140778
Heightened Def Con from 0.0140778 to 0.0140778
Heightened Def Con from 0.0140778 to 0.0140778
Heightened Def Con from 0.0140778 to 0.0140778
Heightened Def Con from 0.0140778 to 0.0140778
Heightened Def Con from 0.0140778 to 0.0140778
Heightened Def Con from 0.0140778 to 0.0140778
Heightened Def Con from 0.0140778 to 0.0140778
Heightened Def Con from 0.0140778 to 0.0140778
Heightened Def Con from 0.0140778 to 0.0140778
Heightened Def Con from 0.0140778 to 0.0140778
Heightened Def Con from 0.0140778 to 0.0140778
Heightened Def Con from 0.0140778 to 0.0140778
Heightened Def Con from 0.0140778 to 0.0140778
Heightened Def Con from 0.0140778 to 0.0140778
Heightened Def Con from 0.0140778 to 0.0140778
Heightened Def Con from 0.0140778 to 0.0140778
Heightened Def Con from 0.0140778 to 0.0140778
Heightened Def Con from 0.0140778 to 0.0140778
Heightened Def Con from 0.0140778 to 0.0140778
Heightened Def Con from 0.0140778 to 0.0140778
Heightened Def Con from 0.0140778 to 0.0140778
Heightened Def Con from 0.0140778 to 0.0140778
Heightened Def Con from 0.0140778 to 0.0140778
Heightened Def Con from 0.0140778 to 0.0140778
Heightened Def Con from 0.0140778 to 0.0140778
Heightened Def Con from 0.0140778 to 0.0140778
Heightened Def Con from 0.0140778 to 0.0140778
Heightened Def Con from 0.0140778 to 0.0140778
Heightened Def Con from 0.0140778 to 0.0140778
Heightened Def Con from 0.0140778 to 0.0140778
Heightened Def Con from 0.0140778 to 0.0140778
Heightened Def Con from 0.0140778 to 0.0140778
Heightened Def Con from 0.0140778 +to 0.0140778
Heightened Def Con from 0.0140778 to 0.0140778
Heightened Def Con from 0.0140778 to 0.0140778
Heightened Def Con from 0.0140778 to 0.0140778
Heightened Def Con from 0.0140778 to 0.0140778
Heightened Def Con from 0.0140778 to 0.0140778
Heightened Def Con from 0.0140778 to 0.0140778
Heightened Def Con from 0.0140778 to 0.0140778
Heightened Def Con from 0.0140778 to 0.0140778
Heightened Def Con from 0.0140778 to 0.0140778
Heightened Def Con from 0.0140778 to 0.0140778
Heightened Def Con from 0.0140778 to 0.0140778
Heightened Def Con from 0.0140778 to 0.0140778
Heightened Def Con from 0.0140778 to 0.0140778
Heightened Def Con from 0.0140778 to 0.0140778
Heightened Def Con from 0.0140778 to 0.0140778
Heightened Def Con from 0.0140778 to 0.0140778
Heightened Def Con from 0.0140778 +to 0.0140778
Heightened Def Con from 0.0140778 to 0.0140778
Heightened Def Con from 0.0140778 to 0.0140778
Heightened Def Con from 0.0140778 to 0.0140778
Heightened Def Con from 0.0140778 to 0.0140778
Heightened Def Con from 0.0140778 to 0.0140778
Heightened Def Con from 0.0140778 +to 0.0140778
Heightened Def Con from 0.0140778 to 0.0140778
Heightened Def Con from 0.0140778 to 0.0140778
Heightened Def Con from 0.0140778 to 0.0140778
Heightened Def Con from 0.0140778 +to 0.0140778
Heightened Def Con from 0.0140778 +to 0.0140778
Heightened Def Con from 0.0140778 to 0.0140778
Heightened Def Con from 0.0140778 to 0.0140778
Heightened Def Con from 0.0140778 to 0.0140778
Heightened Def Con from 0.0140778 to 0.0140778
Heightened Def Con from 0.0140778 to 0.0140778
Heightened Def Con from 0.0140778 to 0.0140778
Heightened Def Con from 0.0140778 to 0.0140778
Heightened Def Con from 0.0140778 +to 0.0140778
Heightened Def Con from 0.0140778 to 0.0140778
Heightened Def Con from 0.0140778 to 0.0140778
Heightened Def Con from 0.0140778 to 0.0140778
Heightened Def Con from 0.0140778 to 0.0140778
Heightened Def Con from 0.0140778 to 0.0140778
Heightened Def Con from 0.0140778 +to 0.0140778
Heightened Def Con from 0.0140778 to 0.0140778
Heightened Def Con from 0.0140778 to 0.0140778
Heightened Def Con from 0.0140778 to 0.0140778
Heightened Def Con from 0.0140778 to 0.0140778
Heightened Def Con from 0.0140778 to 0.0140778
Heightened Def Con from 0.0140778 to 0.0140778
Heightened Def Con from 0.0140778 to 0.0140778
Heightened Def Con from 0.0140778 to 0.0140778
Heightened Def Con from 0.0140778 to 0.0140778
Heightened Def Con from 0.0140778 to 0.0140778
Heightened Def Con from 0.0140778 to 0.0140778
Heightened Def Con from 0.0140778 to 0.0140778
Heightened Def Con from 0.0140778 to 0.0140778
Heightened Def Con from 0.0140778 to 0.0140778
Heightened Def Con from 0.0140778 to 0.0140778
Heightened Def Con from 0.0140778 to 0.0140778
Heightened Def Con from 0.0140778 to 0.0140778
Heightened Def Con from 0.0140778 to 0.0140778
Heightened Def Con from 0.0140778 to 0.0140778
Heightened Def Con from 0.0140778 to 0.0140778
Heightened Def Con from 0.0140778 +to 0.0140778
Heightened Def Con from 0.0140778 to 0.0140778
Heightened Def Con from 0.0140778 to 0.0140778
Heightened Def Con from 0.0140778 to 0.0140778
Heightened Def Con from 0.0140778 to 0.0140778
Heightened Def Con from 0.0140778 to 0.0140778
Heightened Def Con from 0.0140778 to 0.0140778
Heightened Def Con from 0.0140778 to 0.0140778
Heightened Def Con from 0.0140778 to 0.0140778
Heightened Def Con from 0.0140778 to 0.0140778
Heightened Def Con from 0.0140778 to 0.0140778
Heightened Def Con from 0.0140778 to 0.0140778
Heightened Def Con from 0.0140778 to 0.0140778
Heightened Def Con from 0.0140778 to 0.0140778
Heightened Def Con from 0.0140778 to 0.0140778
Heightened Def Con from 0.0140778 to 0.0140778
Heightened Def Con from 0.0140778 to 0.0140778
Heightened Def Con from 0.0140778 to 0.0140778
Heightened Def Con from 0.0140778 to 0.0140778
Heightened Def Con from 0.0140778 to 0.0140778
Heightened Def Con from 0.0140778 to 0.0140778
Heightened Def Con from 0.0140778 +to 0.0140778
Heightened Def Con from 0.0140778 to 0.0140778
Heightened Def Con from 0.0140778 to 0.0140778
Heightened Def Con from 0.0140778 to 0.0140778
Heightened Def Con from 0.0140778 to 0.0140778
Heightened Def Con from 0.0140778 to 0.0140778
Heightened Def Con from 0.0140778 to 0.0140778
Heightened Def Con from 0.0140778 to 0.0140778
Heightened Def Con from 0.0140778 to 0.0140778
Heightened Def Con from 0.0140778 to 0.0140778
Heightened Def Con from 0.0140778 to 0.0140778
Heightened Def Con from 0.0140778 to 0.0140778
Heightened Def Con from 0.0140778 to 0.0140778
Heightened Def Con from 0.0140778 to 0.0140778
Heightened Def Con from 0.0140778 to 0.0140778
Heightened Def Con from 0.0140778 to 0.0140778
Heightened Def Con from 0.0140778 to 0.0140778
Heightened Def Con from 0.0140778 to 0.0140778
Heightened Def Con from 0.0140778 to 0.0140778
Heightened Def Con from 0.0140778 to 0.0140778
Heightened Def Con from 0.0140778 to 0.0140778
Heightened Def Con from 0.0140778 to 0.0140778
Heightened Def Con from 0.0140778 to 0.0140778
Heightened Def Con from 0.0140778 to 0.0140778
Heightened Def Con from 0.0140778 to 0.0140778
Heightened Def Con from 0.0140778 to 0.0140778
Heightened Def Con from 0.0140778 to 0.0140778
Heightened Def Con from 0.0140778 to 0.0140778
Heightened Def Con from 0.0140778 to 0.0140778
Heightened Def Con from 0.0140778 to 0.0140778
Heightened Def Con from 0.0140778 to 0.0140778
Heightened Def Con from 0.0140778 to 0.0140778
Heightened Def Con from 0.0140778 to 0.0140778
Heightened Def Con from 0.0140778 to 0.0140778
Heightened Def Con from 0.0140778 to 0.0140778
Heightened Def Con from 0.0140778 to 0.0140778
Heightened Def Con from 0.0140778 to 0.0140778
Heightened Def Con from 0.0140778 to 0.0140778
Heightened Def Con from 0.0140778 to 0.0140778
Heightened Def Con from 0.0140778 to 0.0140778
Heightened Def Con from 0.0140778 to 0.0140778
Heightened Def Con from 0.0140778 to 0.0140778
Heightened Def Con from 0.0140778 to 0.0140778
Heightened Def Con from 0.0140778 to 0.0140778
Heightened Def Con from 0.0140778 to 0.0140778
Heightened Def Con from 0.0140778 to 0.0140778
Heightened Def Con from 0.0140778 to 0.0140778
Heightened Def Con from 0.0140778 to 0.0140778
Heightened Def Con from 0.0140778 to 0.0140778
Heightened Def Con from 0.0140778 to 0.0140778
Heightened Def Con from 0.0140778 to 0.0140778
Heightened Def Con from 0.0140778 to 0.0140778
Heightened Def Con from 0.0140778 to 0.0140778
Heightened Def Con from 0.0140778 to 0.0140778
Heightened Def Con from 0.0140778 +to 0.0140778
Heightened Def Con from 0.0140778 to 0.0140778
Heightened Def Con from 0.0140778 to 0.0140778
Heightened Def Con from 0.0140778 to 0.0140778
Heightened Def Con from 0.0140778 to 0.0140778
Heightened Def Con from 0.0140778 to 0.0140778
Heightened Def Con from 0.0140778 to 0.0140778
Heightened Def Con from 0.0140778 to 0.0140778
Heightened Def Con from 0.0140778 to 0.0140778
Heightened Def Con from 0.0140778 to 0.0140778
Heightened Def Con from 0.0140778 to 0.0140778
Heightened Def Con from 0.0140778 to 0.0140778
Heightened Def Con from 0.0140778 to 0.0140778
Heightened Def Con from 0.0140778 to 0.0140778
Heightened Def Con from 0.0140778 to 0.0140778
Heightened Def Con from 0.0140778 to 0.0140778
Heightened Def Con from 0.0140778 to 0.0140778
Heightened Def Con from 0.0140778 to 0.0140778
Heightened Def Con from 0.0140778 to 0.0140778
Heightened Def Con from 0.0140778 to 0.0140778
Heightened Def Con from 0.0140778 to 0.0140778
Heightened Def Con from 0.0140778 to 0.0140778
Heightened Def Con from 0.0140778 to 0.0140778
Heightened Def Con from 0.0140778 to 0.0140778
Heightened Def Con from 0.0140778 to 0.0140778
Heightened Def Con from 0.0140778 to 0.0140778
Heightened Def Con from 0.0140778 +to 0.0140778
Heightened Def Con from 0.0140778 to 0.0140778
Heightened Def Con from 0.0140778 to 0.0140778
Heightened Def Con from 0.0140778 to 0.0140778
Heightened Def Con from 0.0140778 to 0.0140778
Heightened Def Con from 0.0140778 to 0.0140778
Heightened Def Con from 0.0140778 to 0.0140778
Heightened Def Con from 0.0140778 to 0.0140778
Heightened Def Con from 0.0140778 to 0.0140778
Heightened Def Con from 0.0140778 to 0.0140778
Heightened Def Con from 0.0140778 to 0.0140778
Heightened Def Con from 0.0140778 to 0.0140778
Heightened Def Con from 0.0140778 to 0.0140778
Heightened Def Con from 0.0140778 to 0.0140778
Heightened Def Con from 0.0140778 to 0.0140778
Heightened Def Con from 0.0140778 to 0.0140778
Heightened Def Con from 0.0140778 to 0.0140778
Heightened Def Con from 0.0140778 +to 0.0140778
Heightened Def Con from 0.0140778 to 0.0140778
Heightened Def Con from 0.0140778 to 0.0140778
Heightened Def Con from 0.0140778 ++to 0.0140778
Heightened Def Con from 0.0140778 to 0.0140778
Heightened Def Con from 0.0140778 to 0.0140778
Heightened Def Con from 0.0140778 to 0.0140778
Heightened Def Con from 0.0140778 to 0.0140778
Heightened Def Con from 0.0140778 +to 0.0140778
Heightened Def Con from 0.0140778 to 0.0140778
Heightened Def Con from 0.0140778 to 0.0140778
Heightened Def Con from 0.0140778 to 0.0140778
Heightened Def Con from 0.0140778 to 0.0140778
Heightened Def Con from 0.0140778 to 0.0140778
Heightened Def Con from 0.0140778 to 0.0140778
Heightened Def Con from 0.0140778 to 0.0140778
Heightened Def Con from 0.0140778 to 0.0140778
Heightened Def Con from 0.0140778 to 0.0140778
Heightened Def Con from 0.0140778 to 0.0140778
Heightened Def Con from 0.0140778 to 0.0140778
Heightened Def Con from 0.0140778 to 0.0140778
Heightened Def Con from 0.0140778 to 0.0140778
Heightened Def Con from 0.0140778 to 0.0140778
Heightened Def Con from 0.0140778 to 0.0140778
Heightened Def Con from 0.0140778 to 0.0140778
Heightened Def Con from 0.0140778 to 0.0140778
Heightened Def Con from 0.0140778 to 0.0140778
Heightened Def Con from 0.0140778 to 0.0140778
Heightened Def Con from 0.0140778 to 0.0140778
Heightened Def Con from 0.0140778 to 0.0140778
Heightened Def Con from 0.0140778 to 0.0140778
Heightened Def Con from 0.0140778 to 0.0140778
Heightened Def Con from 0.0140778 to 0.0140778
Heightened Def Con from 0.0140778 to 0.0140778
Heightened Def Con from 0.0140778 to 0.0140778
Heightened Def Con from 0.0140778 to 0.0140778
Heightened Def Con from 0.0140778 to 0.0140778
Heightened Def Con from 0.0140778 to 0.0140778
Heightened Def Con from 0.0140778 to 0.0140778
Heightened Def Con from 0.0140778 to 0.0140778
Heightened Def Con from 0.0140778 to 0.0140778
Heightened Def Con from 0.0140778 to 0.0140778
Heightened Def Con from 0.0140778 to 0.0140778
Heightened Def Con from 0.0140778 +to 0.0140778
Heightened Def Con from 0.0140778 to 0.0140778
Heightened Def Con from 0.0140778 to 0.0140778
Heightened Def Con from 0.0140778 to 0.0140778
Heightened Def Con from 0.0140778 to 0.0140778
Heightened Def Con from 0.0140778 to 0.0140778
Heightened Def Con from 0.0140778 to 0.0140778
Heightened Def Con from 0.0140778 to 0.0140778
Heightened Def Con from 0.0140778 to 0.0140778
Heightened Def Con from 0.0140778 to 0.0140778
Heightened Def Con from 0.0140778 to 0.0140778
Heightened Def Con from 0.0140778 to 0.0140778
Heightened Def Con from 0.0140778 to 0.0140778
Heightened Def Con from 0.0140778 to 0.0140778
Heightened Def Con from 0.0140778 to 0.0140778
Heightened Def Con from 0.0140778 to 0.0140778
Heightened Def Con from 0.0140778 to 0.0140778
Heightened Def Con from 0.0140778 to 0.0140778
Heightened Def Con from 0.0140778 to 0.0140778
Heightened Def Con from 0.0140778 to 0.0140778
Heightened Def Con from 0.0140778 to 0.0140778
Heightened Def Con from 0.0140778 to 0.0140778
Heightened Def Con from 0.0140778 to 0.0140778
Heightened Def Con from 0.0140778 to 0.0140778
Heightened Def Con from 0.0140778 to 0.0140778
Heightened Def Con from 0.0140778 +to 0.0140778
Heightened Def Con from 0.0140778 to 0.0140778
Heightened Def Con from 0.0140778 to 0.0140778
Heightened Def Con from 0.0140778 to 0.0140778
Heightened Def Con from 0.0140778 to 0.0140778
Heightened Def Con from 0.0140778 to 0.0140778
Heightened Def Con from 0.0140778 to 0.0140778
Heightened Def Con from 0.0140778 to 0.0140778
Heightened Def Con from 0.0140778 to 0.0140778
Heightened Def Con from 0.0140778 to 0.0140778
Heightened Def Con from 0.0140778 to 0.0140778
Heightened Def Con from 0.0140778 to 0.0140778
Heightened Def Con from 0.0140778 to 0.0140778
Heightened Def Con from 0.0140778 to 0.0140778
Heightened Def Con from 0.0140778 to 0.0140778
Heightened Def Con from 0.0140778 to 0.0140778
Heightened Def Con from 0.0140778 to 0.0140778
Heightened Def Con from 0.0140778 to 0.0140778
Heightened Def Con from 0.0140778 to 0.0140778
Heightened Def Con from 0.0140778 to 0.0140778
Heightened Def Con from 0.0140778 to 0.0140778
Heightened Def Con from 0.0140778 to 0.0140778
Heightened Def Con from 0.0140778 to 0.0140778
Heightened Def Con from 0.0140778 to 0.0140778
Heightened Def Con from 0.0140778 +to 0.0140778
Heightened Def Con from 0.0140778 to 0.0140778
Heightened Def Con from 0.0140778 to 0.0140778
Heightened Def Con from 0.0140778 to 0.0140778
Heightened Def Con from 0.0140778 to 0.0140778
Heightened Def Con from 0.0140778 to 0.0140778
Heightened Def Con from 0.0140778 to 0.0140778
Heightened Def Con from 0.0140778 to 0.0140778
Heightened Def Con from 0.0140778 to 0.0140778
Heightened Def Con from 0.0140778 to 0.0140778
Heightened Def Con from 0.0140778 to 0.0140778
Heightened Def Con from 0.0140778 to 0.0140778
Heightened Def Con from 0.0140778 to 0.0140778
Heightened Def Con from 0.0140778 to 0.0140778
Heightened Def Con from 0.0140778 to 0.0140778
Heightened Def Con from 0.0140778 to 0.0140778
Heightened Def Con from 0.0140778 to 0.0140778
Heightened Def Con from 0.0140778 to 0.0140778
Heightened Def Con from 0.0140778 to 0.0140778
Heightened Def Con from 0.0140778 to 0.0140778
Heightened Def Con from 0.0140778 to 0.0140778
Heightened Def Con from 0.0140778 to 0.0140778
Heightened Def Con from 0.0140778 to 0.0140778
Heightened Def Con from 0.0140778 to 0.0140778
Heightened Def Con from 0.0140778 to 0.0140778
Heightened Def Con from 0.0140778 to 0.0140778
Heightened Def Con from 0.0140778 to 0.0140778
Heightened Def Con from 0.0140778 to 0.0140778
Heightened Def Con from 0.0140778 +to 0.0140778
Heightened Def Con from 0.0140778 to 0.0140778
Heightened Def Con from 0.0140778 to 0.0140778
Heightened Def Con from 0.0140778 to 0.0140778
Heightened Def Con from 0.0140778 to 0.0140778
Heightened Def Con from 0.0140778 to 0.0140778
Heightened Def Con from 0.0140778 to 0.0140778
Heightened Def Con from 0.0140778 to 0.0140778
Heightened Def Con from 0.0140778 to 0.0140778
Heightened Def Con from 0.0140778 to 0.0140778
Heightened Def Con from 0.0140778 to 0.0140778
Heightened Def Con from 0.0140778 to 0.0140778
Heightened Def Con from 0.0140778 to 0.0140778
Heightened Def Con from 0.0140778 to 0.0140778
Heightened Def Con from 0.0140778 to 0.0140778
Heightened Def Con from 0.0140778 to 0.0140778
Heightened Def Con from 0.0140778 to 0.0140778
Heightened Def Con from 0.0140778 to 0.0140778
Heightened Def Con from 0.0140778 to 0.0140778
Heightened Def Con from 0.0140778 to 0.0140778
Heightened Def Con from 0.0140778 to 0.0140778
Heightened Def Con from 0.0140778 to 0.0140778
Heightened Def Con from 0.0140778 to 0.0140778
Heightened Def Con from 0.0140778 to 0.0140778
Heightened Def Con from 0.0140778 to 0.0140778
Heightened Def Con from 0.0140778 to 0.0140778
Heightened Def Con from 0.0140778 to 0.0140778
Heightened Def Con from 0.0140778 +to 0.0140778
Heightened Def Con from 0.0140778 to 0.0140778
Heightened Def Con from 0.0140778 to 0.0140778
Heightened Def Con from 0.0140778 to 0.0140778
Heightened Def Con from 0.0140778 to 0.0140778
Heightened Def Con from 0.0140778 to 0.0140778
Heightened Def Con from 0.0140778 to 0.0140778
Heightened Def Con from 0.0140778 +to 0.0140778
Heightened Def Con from 0.0140778 to 0.0140778
Heightened Def Con from 0.0140778 to 0.0140778
Heightened Def Con from 0.0140778 to 0.0140778
Heightened Def Con from 0.0140778 to 0.0140778
Heightened Def Con from 0.0140778 to 0.0140778
Heightened Def Con from 0.0140778 to 0.0140778
Heightened Def Con from 0.0140778 to 0.0140778
Heightened Def Con from 0.0140778 to 0.0140778
Heightened Def Con from 0.0140778 to 0.0140778
Heightened Def Con from 0.0140778 to 0.0140778
Heightened Def Con from 0.0140778 to 0.0140778
Heightened Def Con from 0.0140778 to 0.0140778
Heightened Def Con from 0.0140778 to 0.0140778
Heightened Def Con from 0.0140778 to 0.0140778
Heightened Def Con from 0.0140778 to 0.0140778
Heightened Def Con from 0.0140778 to 0.0140778
Heightened Def Con from 0.0140778 to 0.0140778
Heightened Def Con from 0.0140778 to 0.0140778
Heightened Def Con from 0.0140778 to 0.0140778
Heightened Def Con from 0.0140778 to 0.0140778
Heightened Def Con from 0.0140778 to 0.0140778
Heightened Def Con from 0.0140778 to 0.0140778
Heightened Def Con from 0.0140778 to 0.0140778
Heightened Def Con from 0.0140778 to 0.0140778
Heightened Def Con from 0.0140778 to 0.0140778
Heightened Def Con from 0.0140778 to 0.0140778
Heightened Def Con from 0.0140778 to 0.0140778
Heightened Def Con from 0.0140778 to 0.0140778
Heightened Def Con from 0.0140778 to 0.0140778
Heightened Def Con from 0.0140778 to 0.0140778
Heightened Def Con from 0.0140778 to 0.0140778
Heightened Def Con from 0.0140778 to 0.0140778
Heightened Def Con from 0.0140778 to 0.0140778
Heightened Def Con from 0.0140778 to 0.0140778
Heightened Def Con from 0.0140778 +to 0.0140778
Heightened Def Con from 0.0140778 to 0.0140778
Heightened Def Con from 0.0140778 to 0.0140778
Heightened Def Con from 0.0140778 +to 0.0140778
Heightened Def Con from 0.0140778 to 0.0140778
Heightened Def Con from 0.0140778 to 0.0140778
Heightened Def Con from 0.0140778 to 0.0140778
Heightened Def Con from 0.0140778 to 0.0140778
Heightened Def Con from 0.0140778 +to 0.0140778
Heightened Def Con from 0.0140778 to 0.0140778
Heightened Def Con from 0.0140778 to 0.0140778
Heightened Def Con from 0.0140778 to 0.0140778
Heightened Def Con from 0.0140778 to 0.0140778
Heightened Def Con from 0.0140778 to 0.0140778
Heightened Def Con from 0.0140778 to 0.0140778
Heightened Def Con from 0.0140778 to 0.0140778
Heightened Def Con from 0.0140778 to 0.0140778
Heightened Def Con from 0.0140778 to 0.0140778
Heightened Def Con from 0.0140778 to 0.0140778
Heightened Def Con from 0.0140778 to 0.0140778
Heightened Def Con from 0.0140778 to 0.0140778
Heightened Def Con from 0.0140778 to 0.0140778
Heightened Def Con from 0.0140778 to 0.0140778
Heightened Def Con from 0.0140778 to 0.0140778
Heightened Def Con from 0.0140778 to 0.0140778
Heightened Def Con from 0.0140778 to 0.0140778
Heightened Def Con from 0.0140778 to 0.0140778
Heightened Def Con from 0.0140778 to 0.0140778
Heightened Def Con from 0.0140778 to 0.0140778
Heightened Def Con from 0.0140778 +to 0.0140778
Heightened Def Con from 0.0140778 +to 0.0140778
Heightened Def Con from 0.0140778 to 0.0140778
Heightened Def Con from 0.0140778 to 0.0140778
Heightened Def Con from 0.0140778 +to 0.0140778
Heightened Def Con from 0.0140778 to 0.0140778
Heightened Def Con from 0.0140778 to 0.0140778
Heightened Def Con from 0.0140778 to 0.0140778
Heightened Def Con from 0.0140778 to 0.0140778
Heightened Def Con from 0.0140778 +to 0.0140778
Heightened Def Con from 0.0140778 to 0.0140778
Heightened Def Con from 0.0140778 to 0.0140778
Heightened Def Con from 0.0140778 to 0.0140778
Heightened Def Con from 0.0140778 to 0.0140778
Heightened Def Con from 0.0140778 to 0.0140778
Heightened Def Con from 0.0140778 to 0.0140778
Heightened Def Con from 0.0140778 to 0.0140778
Heightened Def Con from 0.0140778 to 0.0140778
Heightened Def Con from 0.0140778 to 0.0140778
Heightened Def Con from 0.0140778 to 0.0140778
Heightened Def Con from 0.0140778 +to 0.0140778
Heightened Def Con from 0.0140778 to 0.0140778
Heightened Def Con from 0.0140778 to 0.0140778
Heightened Def Con from 0.0140778 to 0.0140778
Heightened Def Con from 0.0140778 to 0.0140778
Heightened Def Con from 0.0140778 to 0.0140778
Heightened Def Con from 0.0140778 to 0.0140778
Heightened Def Con from 0.0140778 +to 0.0140778
Heightened Def Con from 0.0140778 to 0.0140778
Heightened Def Con from 0.0140778 to 0.0140778
Heightened Def Con from 0.0140778 to 0.0140778
Heightened Def Con from 0.0140778 to 0.0140778
Heightened Def Con from 0.0140778 to 0.0140778
Heightened Def Con from 0.0140778 to 0.0140778
Heightened Def Con from 0.0140778 to 0.0140778
Heightened Def Con from 0.0140778 to 0.0140778
Heightened Def Con from 0.0140778 to 0.0140778
Heightened Def Con from 0.0140778 to 0.0140778
Heightened Def Con from 0.0140778 to 0.0140778
Heightened Def Con from 0.0140778 to 0.0140778
Heightened Def Con from 0.0140778 to 0.0140778
Heightened Def Con from 0.0140778 to 0.0140778
Heightened Def Con from 0.0140778 to 0.0140778
Heightened Def Con from 0.0140778 to 0.0140778
Heightened Def Con from 0.0140778 to 0.0140778
Heightened Def Con from 0.0140778 to 0.0140778
Heightened Def Con from 0.0140778 to 0.0140778
Heightened Def Con from 0.0140778 to 0.0140778
Heightened Def Con from 0.0140778 to 0.0140778
Heightened Def Con from 0.0140778 to 0.0140778
Heightened Def Con from 0.0140778 to 0.0140778
Heightened Def Con from 0.0140778 to 0.0140778
Heightened Def Con from 0.0140778 +to 0.0140778
Heightened Def Con from 0.0140778 to 0.0140778
Heightened Def Con from 0.0140778 to 0.0140778
Heightened Def Con from 0.0140778 to 0.0140778
Heightened Def Con from 0.0140778 to 0.0140778
Heightened Def Con from 0.0140778 to 0.0140778
Heightened Def Con from 0.0140778 to 0.0140778
Heightened Def Con from 0.0140778 to 0.0140778
Heightened Def Con from 0.0140778 to 0.0140778
Heightened Def Con from 0.0140778 to 0.0140778
Heightened Def Con from 0.0140778 ++to 0.0140778
Heightened Def Con from 0.0140778 to 0.0140778
Heightened Def Con from 0.0140778 to 0.0140778
Heightened Def Con from 0.0140778 to 0.0140778
Heightened Def Con from 0.0140778 to 0.0140778
Heightened Def Con from 0.0140778 to 0.0140778
Heightened Def Con from 0.0140778 to 0.0140778
Heightened Def Con from 0.0140778 to 0.0140778
Heightened Def Con from 0.0140778 to 0.0140778
Heightened Def Con from 0.0140778 to 0.0140778
Heightened Def Con from 0.0140778 to 0.0140778
Heightened Def Con from 0.0140778 to 0.0140778
Heightened Def Con from 0.0140778 to 0.0140778
Heightened Def Con from 0.0140778 to 0.0140778
Heightened Def Con from 0.0140778 +to 0.0140778
Heightened Def Con from 0.0140778 to 0.0140778
Heightened Def Con from 0.0140778 to 0.0140778
Heightened Def Con from 0.0140778 to 0.0140778
Heightened Def Con from 0.0140778 to 0.0140778
Heightened Def Con from 0.0140778 to 0.0140778
Heightened Def Con from 0.0140778 to 0.0140778
Heightened Def Con from 0.0140778 to 0.0140778
Heightened Def Con from 0.0140778 to 0.0140778
Heightened Def Con from 0.0140778 to 0.0140778
Heightened Def Con from 0.0140778 to 0.0140778
Heightened Def Con from 0.0140778 to 0.0140778
Heightened Def Con from 0.0140778 to 0.0140778
Heightened Def Con from 0.0140778 to 0.0140778
Heightened Def Con from 0.0140778 to 0.0140778
Heightened Def Con from 0.0140778 to 0.0140778
Heightened Def Con from 0.0140778 to 0.0140778
Heightened Def Con from 0.0140778 to 0.0140778
Heightened Def Con from 0.0140778 to 0.0140778
Heightened Def Con from 0.0140778 to 0.0140778
Heightened Def Con from 0.0140778 to 0.0140778
Heightened Def Con from 0.0140778 to 0.0140778
Heightened Def Con from 0.0140778 ++to 0.0140778
Heightened Def Con from 0.0140778 to 0.0140778
Heightened Def Con from 0.0140778 to 0.0140778
Heightened Def Con from 0.0140778 to 0.0140778
Heightened Def Con from 0.0140778 to 0.0140778
Heightened Def Con from 0.0140778 to 0.0140778
Heightened Def Con from 0.0140778 to 0.0140778
Heightened Def Con from 0.0140778 to 0.0140778
Heightened Def Con from 0.0140778 to 0.0140778
Heightened Def Con from 0.0140778 to 0.0140778
Heightened Def Con from 0.0140778 to 0.0140778
Heightened Def Con from 0.0140778 +to 0.0140778
Heightened Def Con from 0.0140778 to 0.0140778
Heightened Def Con from 0.0140778 to 0.0140778
Heightened Def Con from 0.0140778 to 0.0140778
Heightened Def Con from 0.0140778 to 0.0140778
Heightened Def Con from 0.0140778 to 0.0140778
Heightened Def Con from 0.0140778 to 0.0140778
Heightened Def Con from 0.0140778 to 0.0140778
Heightened Def Con from 0.0140778 to 0.0140778
Heightened Def Con from 0.0140778 to 0.0140778
Heightened Def Con from 0.0140778 to 0.0140778
Heightened Def Con from 0.0140778 to 0.0140778
Heightened Def Con from 0.0140778 to 0.0140778
Heightened Def Con from 0.0140778 to 0.0140778
Heightened Def Con from 0.0140778 to 0.0140778
Heightened Def Con from 0.0140778 to 0.0140778
Heightened Def Con from 0.0140778 to 0.0140778
Heightened Def Con from 0.0140778 to 0.0140778
Heightened Def Con from 0.0140778 to 0.0140778
Heightened Def Con from 0.0140778 to 0.0140778
Heightened Def Con from 0.0140778 to 0.0140778
Heightened Def Con from 0.0140778 to 0.0140778
Heightened Def Con from 0.0140778 to 0.0140778
Heightened Def Con from 0.0140778 +to 0.0140778
Heightened Def Con from 0.0140778 to 0.0140778
Heightened Def Con from 0.0140778 to 0.0140778
Heightened Def Con from 0.0140778 to 0.0140778
Heightened Def Con from 0.0140778 to 0.0140778
Heightened Def Con from 0.0140778 to 0.0140778
Heightened Def Con from 0.0140778 to 0.0140778
Heightened Def Con from 0.0140778 to 0.0140778
Heightened Def Con from 0.0140778 to 0.0140778
Heightened Def Con from 0.0140778 to 0.0140778
Heightened Def Con from 0.0140778 to 0.0140778
Heightened Def Con from 0.0140778 ++to 0.0140778
Heightened Def Con from 0.0140778 to 0.0140778
Heightened Def Con from 0.0140778 to 0.0140778
Heightened Def Con from 0.0140778 to 0.0140778
Heightened Def Con from 0.0140778 to 0.0140778
Heightened Def Con from 0.0140778 to 0.0140778
Heightened Def Con from 0.0140778 to 0.0140778
Heightened Def Con from 0.0140778 to 0.0140778
Heightened Def Con from 0.0140778 to 0.0140778
Heightened Def Con from 0.0140778 to 0.0140778
Heightened Def Con from 0.0140778 to 0.0140778
Heightened Def Con from 0.0140778 to 0.0140778
Heightened Def Con from 0.0140778 to 0.0140778
Heightened Def Con from 0.0140778 to 0.0140778
Heightened Def Con from 0.0140778 to 0.0140778
Heightened Def Con from 0.0140778 to 0.0140778
Heightened Def Con from 0.0140778 to 0.0140778
Heightened Def Con from 0.0140778 to 0.0140778
Heightened Def Con from 0.0140778 to 0.0140778
Heightened Def Con from 0.0140778 to 0.0140778
Heightened Def Con from 0.0140778 to 0.0140778
Heightened Def Con from 0.0140778 to 0.0140778
Heightened Def Con from 0.0140778 to 0.0140778
Heightened Def Con from 0.0140778 to 0.0140778
Heightened Def Con from 0.0140778 to 0.0140778
Heightened Def Con from 0.0140778 to 0.0140778
Heightened Def Con from 0.0140778 to 0.0140778
Heightened Def Con from 0.0140778 to 0.0140778
Heightened Def Con from 0.0140778 to 0.0140778
Heightened Def Con from 0.0140778 to 0.0140778
Heightened Def Con from 0.0140778 to 0.0140778
Heightened Def Con from 0.0140778 to 0.0140778
Heightened Def Con from 0.0140778 to 0.0140778
Heightened Def Con from 0.0140778 to 0.0140778
Heightened Def Con from 0.0140778 to 0.0140778
Heightened Def Con from 0.0140778 to 0.0140778
Heightened Def Con from 0.0140778 to 0.0140778
Heightened Def Con from 0.0140778 to 0.0140778
Heightened Def Con from 0.0140778 +to 0.0140778
Heightened Def Con from 0.0140778 to 0.0140778
Heightened Def Con from 0.0140778 to 0.0140778
Heightened Def Con from 0.0140778 +to 0.0140778
Heightened Def Con from 0.0140778 to 0.0140778
Heightened Def Con from 0.0140778 to 0.0140778
Heightened Def Con from 0.0140778 to 0.0140778
Heightened Def Con from 0.0140778 to 0.0140778
Heightened Def Con from 0.0140778 to 0.0140778
Heightened Def Con from 0.0140778 to 0.0140778
Heightened Def Con from 0.0140778 to 0.0140778
Heightened Def Con from 0.0140778 to 0.0140778
Heightened Def Con from 0.0140778 to 0.0140778
Heightened Def Con from 0.0140778 to 0.0140778
Heightened Def Con from 0.0140778 to 0.0140778
Heightened Def Con from 0.0140778 to 0.0140778
Heightened Def Con from 0.0140778 to 0.0140778
Heightened Def Con from 0.0140778 to 0.0140778
Heightened Def Con from 0.0140778 to 0.0140778
Heightened Def Con from 0.0140778 to 0.0140778
Heightened Def Con from 0.0140778 to 0.0140778
Heightened Def Con from 0.0140778 to 0.0140778
Heightened Def Con from 0.0140778 to 0.0140778
Heightened Def Con from 0.0140778 to 0.0140778
Heightened Def Con from 0.0140778 to 0.0140778
Heightened Def Con from 0.0140778 to 0.0140778
Heightened Def Con from 0.0140778 to 0.0140778
Heightened Def Con from 0.0140778 to 0.0140778
Heightened Def Con from 0.0140778 to 0.0140778
Heightened Def Con from 0.0140778 to 0.0140778
Heightened Def Con from 0.0140778 +to 0.0140778
Heightened Def Con from 0.0140778 to 0.0140778
Heightened Def Con from 0.0140778 to 0.0140778
Heightened Def Con from 0.0140778 to 0.0140778
Heightened Def Con from 0.0140778 +to 0.0140778
Heightened Def Con from 0.0140778 to 0.0140778
Heightened Def Con from 0.0140778 to 0.0140778
Heightened Def Con from 0.0140778 to 0.0140778
Heightened Def Con from 0.0140778 to 0.0140778
Heightened Def Con from 0.0140778 to 0.0140778
Heightened Def Con from 0.0140778 to 0.0140778
Heightened Def Con from 0.0140778 to 0.0140778
Heightened Def Con from 0.0140778 to 0.0140778
Heightened Def Con from 0.0140778 to 0.0140778
Heightened Def Con from 0.0140778 to 0.0140778
Heightened Def Con from 0.0140778 to 0.0140778
Heightened Def Con from 0.0140778 +to 0.0140778
Heightened Def Con from 0.0140778 to 0.0140778
Heightened Def Con from 0.0140778 to 0.0140778
Heightened Def Con from 0.0140778 to 0.0140778
Heightened Def Con from 0.0140778 to 0.0140778
Heightened Def Con from 0.0140778 to 0.0140778
Heightened Def Con from 0.0140778 to 0.0140778
Heightened Def Con from 0.0140778 to 0.0140778
Heightened Def Con from 0.0140778 to 0.0140778
Heightened Def Con from 0.0140778 to 0.0140778
Heightened Def Con from 0.0140778 to 0.0140778
Heightened Def Con from 0.0140778 to 0.0140778
Heightened Def Con from 0.0140778 to 0.0140778
Heightened Def Con from 0.0140778 to 0.0140778
Heightened Def Con from 0.0140778 to 0.0140778
Heightened Def Con from 0.0140778 to 0.0140778
Heightened Def Con from 0.0140778 to 0.0140778
Heightened Def Con from 0.0140778 to 0.0140778
Heightened Def Con from 0.0140778 to 0.0140778
Heightened Def Con from 0.0140778 to 0.0140778
Heightened Def Con from 0.0140778 to 0.0140778
Heightened Def Con from 0.0140778 to 0.0140778
Heightened Def Con from 0.0140778 to 0.0140778
Heightened Def Con from 0.0140778 +to 0.0140778
Heightened Def Con from 0.0140778 to 0.0140778
Heightened Def Con from 0.0140778 to 0.0140778
Heightened Def Con from 0.0140778 to 0.0140778
Heightened Def Con from 0.0140778 to 0.0140778
Heightened Def Con from 0.0140778 to 0.0140778
Heightened Def Con from 0.0140778 +to 0.0140778
Heightened Def Con from 0.0140778 to 0.0140778
Heightened Def Con from 0.0140778 to 0.0140778
Heightened Def Con from 0.0140778 to 0.0140778
Heightened Def Con from 0.0140778 to 0.0140778
Heightened Def Con from 0.0140778 to 0.0140778
Heightened Def Con from 0.0140778 to 0.0140778
Heightened Def Con from 0.0140778 to 0.0140778
Heightened Def Con from 0.0140778 to 0.0140778
Heightened Def Con from 0.0140778 to 0.0140778
Heightened Def Con from 0.0140778 to 0.0140778
Heightened Def Con from 0.0140778 to 0.0140778
Heightened Def Con from 0.0140778 to 0.0140778
Heightened Def Con from 0.0140778 to 0.0140778
Heightened Def Con from 0.0140778 to 0.0140778
Heightened Def Con from 0.0140778 to 0.0140778
Heightened Def Con from 0.0140778 to 0.0140778
Heightened Def Con from 0.0140778 to 0.0140778
Heightened Def Con from 0.0140778 to 0.0140778
Heightened Def Con from 0.0140778 to 0.0140778
Heightened Def Con from 0.0140778 to 0.0140778
Heightened Def Con from 0.0140778 to 0.0140778
Heightened Def Con from 0.0140778 to 0.0140778
Heightened Def Con from 0.0140778 to 0.0140778
Heightened Def Con from 0.0140778 to 0.0140778
Heightened Def Con from 0.0140778 to 0.0140778
Heightened Def Con from 0.0140778 to 0.0140778
Heightened Def Con from 0.0140778 +to 0.0140778
Heightened Def Con from 0.0140778 to 0.0140778
Heightened Def Con from 0.0140778 to 0.0140778
Heightened Def Con from 0.0140778 to 0.0140778
Heightened Def Con from 0.0140778 to 0.0140778
Heightened Def Con from 0.0140778 to 0.0140778
Heightened Def Con from 0.0140778 to 0.0140778
Heightened Def Con from 0.0140778 to 0.0140778
Heightened Def Con from 0.0140778 to 0.0140778
Heightened Def Con from 0.0140778 to 0.0140778
Heightened Def Con from 0.0140778 to 0.0140778
Heightened Def Con from 0.0140778 ++to 0.0140778
Heightened Def Con from 0.0140778 to 0.0140778
Heightened Def Con from 0.0140778 to 0.0140778
Heightened Def Con from 0.0140778 to 0.0140778
Heightened Def Con from 0.0140778 to 0.0140778
Heightened Def Con from 0.0140778 to 0.0140778
Heightened Def Con from 0.0140778 to 0.0140778
Heightened Def Con from 0.0140778 to 0.0140778
Heightened Def Con from 0.0140778 to 0.0140778
Heightened Def Con from 0.0140778 to 0.0140778
Heightened Def Con from 0.0140778 to 0.0140778
Heightened Def Con from 0.0140778 to 0.0140778
Heightened Def Con from 0.0140778 to 0.0140778
Heightened Def Con from 0.0140778 to 0.0140778
Heightened Def Con from 0.0140778 to 0.0140778
Heightened Def Con from 0.0140778 to 0.0140778
Heightened Def Con from 0.0140778 +to 0.0140778
Heightened Def Con from 0.0140778 to 0.0140778
Heightened Def Con from 0.0140778 +to 0.0140778
Heightened Def Con from 0.0140778 +to 0.0140778
Heightened Def Con from 0.0140778 to 0.0140778
Heightened Def Con from 0.0140778 to 0.0140778
Heightened Def Con from 0.0140778 to 0.0140778
Heightened Def Con from 0.0140778 to 0.0140778
Heightened Def Con from 0.0140778 to 0.0140778
Heightened Def Con from 0.0140778 to 0.0140778
Heightened Def Con from 0.0140778 to 0.0140778
Heightened Def Con from 0.0140778 to 0.0140778
Heightened Def Con from 0.0140778 to 0.0140778
Heightened Def Con from 0.0140778 to 0.0140778
Heightened Def Con from 0.0140778 to 0.0140778
Heightened Def Con from 0.0140778 to 0.0140778
Heightened Def Con from 0.0140778 to 0.0140778
Heightened Def Con from 0.0140778 to 0.0140778
Heightened Def Con from 0.0140778 to 0.0140778
Heightened Def Con from 0.0140778 to 0.0140778
Heightened Def Con from 0.0140778 to 0.0140778
Heightened Def Con from 0.0140778 to 0.0140778
Heightened Def Con from 0.0140778 to 0.0140778
Heightened Def Con from 0.0140778 to 0.0140778
Heightened Def Con from 0.0140778 to 0.0140778
Heightened Def Con from 0.0140778 to 0.0140778
Heightened Def Con from 0.0140778 ++to 0.0140778
Heightened Def Con from 0.0140778 to 0.0140778
Heightened Def Con from 0.0140778 to 0.0140778
Heightened Def Con from 0.0140778 to 0.0140778
Heightened Def Con from 0.0140778 to 0.0140778
Heightened Def Con from 0.0140778 +to 0.0140778
Heightened Def Con from 0.0140778 to 0.0140778
Heightened Def Con from 0.0140778 to 0.0140778
Heightened Def Con from 0.0140778 to 0.0140778
Heightened Def Con from 0.0140778 to 0.0140778
Heightened Def Con from 0.0140778 to 0.0140778
Heightened Def Con from 0.0140778 to 0.0140778
Heightened Def Con from 0.0140778 to 0.0140778
Heightened Def Con from 0.0140778 to 0.0140778
Heightened Def Con from 0.0140778 to 0.0140778
Heightened Def Con from 0.0140778 to 0.0140778
Heightened Def Con from 0.0140778 +to 0.0140778
Heightened Def Con from 0.0140778 to 0.0140778
Heightened Def Con from 0.0140778 to 0.0140778
Heightened Def Con from 0.0140778 to 0.0140778
Heightened Def Con from 0.0140778 to 0.0140778
Heightened Def Con from 0.0140778 to 0.0140778
Heightened Def Con from 0.0140778 to 0.0140778
Heightened Def Con from 0.0140778 to 0.0140778
Heightened Def Con from 0.0140778 to 0.0140778
Heightened Def Con from 0.0140778 to 0.0140778
Heightened Def Con from 0.0140778 ++to 0.0140778
Heightened Def Con from 0.0140778 to 0.0140778
Heightened Def Con from 0.0140778 to 0.0140778
Heightened Def Con from 0.0140778 to 0.0140778
Heightened Def Con from 0.0140778 to 0.0140778
Heightened Def Con from 0.0140778 to 0.0140778
Heightened Def Con from 0.0140778 +to 0.0140778
Heightened Def Con from 0.0140778 to 0.0140778
Heightened Def Con from 0.0140778 to 0.0140778
Heightened Def Con from 0.0140778 to 0.0140778
Heightened Def Con from 0.0140778 to 0.0140778
Heightened Def Con from 0.0140778 to 0.0140778
Heightened Def Con from 0.0140778 to 0.0140778
Heightened Def Con from 0.0140778 to 0.0140778
Heightened Def Con from 0.0140778 to 0.0140778
Heightened Def Con from 0.0140778 to 0.0140778
Heightened Def Con from 0.0140778 to 0.0140778
Heightened Def Con from 0.0140778 to 0.0140778
Heightened Def Con from 0.0140778 to 0.0140778
Heightened Def Con from 0.0140778 to 0.0140778
Heightened Def Con from 0.0140778 to 0.0140778
Heightened Def Con from 0.0140778 to 0.0140778
Heightened Def Con from 0.0140778 to 0.0140778
Heightened Def Con from 0.0140778 to 0.0140778
Heightened Def Con from 0.0140778 to 0.0140778
Heightened Def Con from 0.0140778 +to 0.0140778
Heightened Def Con from 0.0140778 to 0.0140778
Heightened Def Con from 0.0140778 to 0.0140778
Heightened Def Con from 0.0140778 to 0.0140778
Heightened Def Con from 0.0140778 to 0.0140778
Heightened Def Con from 0.0140778 to 0.0140778
Heightened Def Con from 0.0140778 to 0.0140778
Heightened Def Con from 0.0140778 to 0.0140778
Heightened Def Con from 0.0140778 to 0.0140778
Heightened Def Con from 0.0140778 to 0.0140778
Heightened Def Con from 0.0140778 to 0.0140778
Heightened Def Con from 0.0140778 to 0.0140778
Heightened Def Con from 0.0140778 to 0.0140778
Heightened Def Con from 0.0140778 to 0.0140778
Heightened Def Con from 0.0140778 to 0.0140778
Heightened Def Con from 0.0140778 to 0.0140778
Heightened Def Con from 0.0140778 to 0.0140778
Heightened Def Con from 0.0140778 to 0.0140778
Heightened Def Con from 0.0140778 to 0.0140778
Heightened Def Con from 0.0140778 to 0.0140778
Heightened Def Con from 0.0140778 to 0.0140778
Heightened Def Con from 0.0140778 to 0.0140778
Heightened Def Con from 0.0140778 +to 0.0140778
Heightened Def Con from 0.0140778 to 0.0140778
Heightened Def Con from 0.0140778 to 0.0140778
Heightened Def Con from 0.0140778 to 0.0140778
Heightened Def Con from 0.0140778 to 0.0140778
Heightened Def Con from 0.0140778 to 0.0140778
Heightened Def Con from 0.0140778 to 0.0140778
Heightened Def Con from 0.0140778 ++to 0.0140778
Heightened Def Con from 0.0140778 to 0.0140778
Heightened Def Con from 0.0140778 to 0.0140778
Heightened Def Con from 0.0140778 to 0.0140778
Heightened Def Con from 0.0140778 to 0.0140778
Heightened Def Con from 0.0140778 +to 0.0140778
Heightened Def Con from 0.0140778 to 0.0140778
Heightened Def Con from 0.0140778 to 0.0140778
Heightened Def Con from 0.0140778 to 0.0140778
Heightened Def Con from 0.0140778 to 0.0140778
Heightened Def Con from 0.0140778 +to 0.0140778
Heightened Def Con from 0.0140778 +to 0.0140778
Heightened Def Con from 0.0140778 to 0.0140778
Heightened Def Con from 0.0140778 to 0.0140778
Heightened Def Con from 0.0140778 to 0.0140778
Heightened Def Con from 0.0140778 to 0.0140778
Heightened Def Con from 0.0140778 to 0.0140778
Heightened Def Con from 0.0140778 to 0.0140778
Heightened Def Con from 0.0140778 to 0.0140778
Heightened Def Con from 0.0140778 to 0.0140778
Heightened Def Con from 0.0140778 to 0.0140778
Heightened Def Con from 0.0140778 to 0.0140778
Heightened Def Con from 0.0140778 to 0.0140778
Heightened Def Con from 0.0140778 +to 0.0140778
Heightened Def Con from 0.0140778 to 0.0140778
Heightened Def Con from 0.0140778 to 0.0140778
Heightened Def Con from 0.0140778 to 0.0140778
Heightened Def Con from 0.0140778 to 0.0140778
Heightened Def Con from 0.0140778 +to 0.0140778
Heightened Def Con from 0.0140778 to 0.0140778
Heightened Def Con from 0.0140778 to 0.0140778
Heightened Def Con from 0.0140778 to 0.0140778
Heightened Def Con from 0.0140778 to 0.0140778
Heightened Def Con from 0.0140778 to 0.0140778
Heightened Def Con from 0.0140778 to 0.0140778
Heightened Def Con from 0.0140778 +to 0.0140778
Heightened Def Con from 0.0140778 to 0.0140778
Heightened Def Con from 0.0140778 to 0.0140778
Heightened Def Con from 0.0140778 to 0.0140778
Heightened Def Con from 0.0140778 to 0.0140778
Heightened Def Con from 0.0140778 to 0.0140778
Heightened Def Con from 0.0140778 to 0.0140778
Heightened Def Con from 0.0140778 to 0.0140778
Heightened Def Con from 0.0140778 to 0.0140778
Heightened Def Con from 0.0140778 to 0.0140778
Heightened Def Con from 0.0140778 to 0.0140778
Heightened Def Con from 0.0140778 to 0.0140778
Heightened Def Con from 0.0140778 +to 0.0140778
Heightened Def Con from 0.0140778 to 0.0140778
Heightened Def Con from 0.0140778 to 0.0140778
Heightened Def Con from 0.0140778 to 0.0140778
Heightened Def Con from 0.0140778 to 0.0140778
Heightened Def Con from 0.0140778 to 0.0140778
Heightened Def Con from 0.0140778 to 0.0140778
Heightened Def Con from 0.0140778 to 0.0140778
Heightened Def Con from 0.0140778 +to 0.0140778
Heightened Def Con from 0.0140778 to 0.0140778
Heightened Def Con from 0.0140778 to 0.0140778
Heightened Def Con from 0.0140778 to 0.0140778
Heightened Def Con from 0.0140778 to 0.0140778
Heightened Def Con from 0.0140778 to 0.0140778
Heightened Def Con from 0.0140778 to 0.0140778
Heightened Def Con from 0.0140778 to 0.0140778
Heightened Def Con from 0.0140778 to 0.0140778
Heightened Def Con from 0.0140778 to 0.0140778
Heightened Def Con from 0.0140778 to 0.0140778
Heightened Def Con from 0.0140778 to 0.0140778
Heightened Def Con from 0.0140778 to 0.0140778
Heightened Def Con from 0.0140778 to 0.0140778
Heightened Def Con from 0.0140778 to 0.0140778
Heightened Def Con from 0.0140778 to 0.0140778
Heightened Def Con from 0.0140778 to 0.0140778
Heightened Def Con from 0.0140778 to 0.0140778
Heightened Def Con from 0.0140778 to 0.0140778
Heightened Def Con from 0.0140778 to 0.0140778
Heightened Def Con from 0.0140778 to 0.0140778
Heightened Def Con from 0.0140778 to 0.0140778
Heightened Def Con from 0.0140778 to 0.0140778
Heightened Def Con from 0.0140778 to 0.0140778
Heightened Def Con from 0.0140778 to 0.0140778
Heightened Def Con from 0.0140778 +to 0.0140778
Heightened Def Con from 0.0140778 to 0.0140778
Heightened Def Con from 0.0140778 to 0.0140778
Heightened Def Con from 0.0140778 to 0.0140778
Heightened Def Con from 0.0140778 to 0.0140778
Heightened Def Con from 0.0140778 to 0.0140778
Heightened Def Con from 0.0140778 to 0.0140778
Heightened Def Con from 0.0140778 +to 0.0140778
Heightened Def Con from 0.0140778 to 0.0140778
Heightened Def Con from 0.0140778 to 0.0140778
Heightened Def Con from 0.0140778 to 0.0140778
Heightened Def Con from 0.0140778 to 0.0140778
Heightened Def Con from 0.0140778 to 0.0140778
Heightened Def Con from 0.0140778 to 0.0140778
Heightened Def Con from 0.0140778 to 0.0140778
Heightened Def Con from 0.0140778 to 0.0140778
Heightened Def Con from 0.0140778 to 0.0140778
Heightened Def Con from 0.0140778 to 0.0140778
Heightened Def Con from 0.0140778 to 0.0140778
Heightened Def Con from 0.0140778 to 0.0140778
Heightened Def Con from 0.0140778 to 0.0140778
Heightened Def Con from 0.0140778 to 0.0140778
Heightened Def Con from 0.0140778 to 0.0140778
Heightened Def Con from 0.0140778 to 0.0140778
Heightened Def Con from 0.0140778 to 0.0140778
Heightened Def Con from 0.0140778 to 0.0140778
Heightened Def Con from 0.0140778 to 0.0140778
Heightened Def Con from 0.0140778 to 0.0140778
Heightened Def Con from 0.0140778 to 0.0140778
Heightened Def Con from 0.0140778 to 0.0140778
Heightened Def Con from 0.0140778 to 0.0140778
Heightened Def Con from 0.0140778 to 0.0140778
Heightened Def Con from 0.0140778 to 0.0140778
Heightened Def Con from 0.0140778 to 0.0140778
Heightened Def Con from 0.0140778 to 0.0140778
Heightened Def Con from 0.0140778 to 0.0140778
Heightened Def Con from 0.0140778 to 0.0140778
Heightened Def Con from 0.0140778 to 0.0140778
Heightened Def Con from 0.0140778 to 0.0140778
Heightened Def Con from 0.0140778 to 0.0140778
Heightened Def Con from 0.0140778 to 0.0140778
Heightened Def Con from 0.0140778 to 0.0140778
Heightened Def Con from 0.0140778 to 0.0140778
Heightened Def Con from 0.0140778 to 0.0140778
Heightened Def Con from 0.0140778 to 0.0140778
Heightened Def Con from 0.0140778 to 0.0140778
Heightened Def Con from 0.0140778 to 0.0140778
Heightened Def Con from 0.0140778 to 0.0140778
Heightened Def Con from 0.0140778 to 0.0140778
Heightened Def Con from 0.0140778 to 0.0140778
Heightened Def Con from 0.0140778 to 0.0140778
Heightened Def Con from 0.0140778 to 0.0140778
Heightened Def Con from 0.0140778 to 0.0140778
Heightened Def Con from 0.0140778 to 0.0140778
Heightened Def Con from 0.0140778 to 0.0140778
Heightened Def Con from 0.0140778 to 0.0140778
Heightened Def Con from 0.0140778 to 0.0140778
Heightened Def Con from 0.0140778 to 0.0140778
Heightened Def Con from 0.0140778 to 0.0140778
Heightened Def Con from 0.0140778 to 0.0140778
Heightened Def Con from 0.0140778 to 0.0140778
Heightened Def Con from 0.0140778 to 0.0140778
Heightened Def Con from 0.0140778 to 0.0140778
Heightened Def Con from 0.0140778 +to 0.0140778
Heightened Def Con from 0.0140778 to 0.0140778
Heightened Def Con from 0.0140778 to 0.0140778
Heightened Def Con from 0.0140778 to 0.0140778
Heightened Def Con from 0.0140778 to 0.0140778
Heightened Def Con from 0.0140778 to 0.0140778
Heightened Def Con from 0.0140778 to 0.0140778
Heightened Def Con from 0.0140778 to 0.0140778
Heightened Def Con from 0.0140778 to 0.0140778
Heightened Def Con from 0.0140778 +to 0.0140778
Heightened Def Con from 0.0140778 to 0.0140778
Heightened Def Con from 0.0140778 to 0.0140778
Heightened Def Con from 0.0140778 to 0.0140778
Heightened Def Con from 0.0140778 to 0.0140778
Heightened Def Con from 0.0140778 to 0.0140778
Heightened Def Con from 0.0140778 to 0.0140778
Heightened Def Con from 0.0140778 ++to 0.0140778
Heightened Def Con from 0.0140778 to 0.0140778
Heightened Def Con from 0.0140778 to 0.0140778
Heightened Def Con from 0.0140778 to 0.0140778
Heightened Def Con from 0.0140778 to 0.0140778
Heightened Def Con from 0.0140778 to 0.0140778
Heightened Def Con from 0.0140778 to 0.0140778
Heightened Def Con from 0.0140778 to 0.0140778
Heightened Def Con from 0.0140778 to 0.0140778
Heightened Def Con from 0.0140778 to 0.0140778
Heightened Def Con from 0.0140778 to 0.0140778
Heightened Def Con from 0.0140778 to 0.0140778
Heightened Def Con from 0.0140778 to 0.0140778
Heightened Def Con from 0.0140778 to 0.0140778
Heightened Def Con from 0.0140778 to 0.0140778
Heightened Def Con from 0.0140778 to 0.0140778
Heightened Def Con from 0.0140778 to 0.0140778
Heightened Def Con from 0.0140778 to 0.0140778
Heightened Def Con from 0.0140778 to 0.0140778
Heightened Def Con from 0.0140778 to 0.0140778
Heightened Def Con from 0.0140778 to 0.0140778
Heightened Def Con from 0.0140778 to 0.0140778
Heightened Def Con from 0.0140778 to 0.0140778
Heightened Def Con from 0.0140778 to 0.0140778
Heightened Def Con from 0.0140778 to 0.0140778
Heightened Def Con from 0.0140778 to 0.0140778
Heightened Def Con from 0.0140778 to 0.0140778
Heightened Def Con from 0.0140778 to 0.0140778
Heightened Def Con from 0.0140778 to 0.0140778
Heightened Def Con from 0.0140778 to 0.0140778
Heightened Def Con from 0.0140778 to 0.0140778
Heightened Def Con from 0.0140778 to 0.0140778
Heightened Def Con from 0.0140778 to 0.0140778
Heightened Def Con from 0.0140778 to 0.0140778
Heightened Def Con from 0.0140778 to 0.0140778
Heightened Def Con from 0.0140778 to 0.0140778
Heightened Def Con from 0.0140778 to 0.0140778
Heightened Def Con from 0.0140778 to 0.0140778
Heightened Def Con from 0.0140778 to 0.0140778
Heightened Def Con from 0.0140778 to 0.0140778
Heightened Def Con from 0.0140778 to 0.0140778
Heightened Def Con from 0.0140778 to 0.0140778
Heightened Def Con from 0.0140778 to 0.0140778
Heightened Def Con from 0.0140778 to 0.0140778
Heightened Def Con from 0.0140778 to 0.0140778
Heightened Def Con from 0.0140778 to 0.0140778
Heightened Def Con from 0.0140778 to 0.0140778
Heightened Def Con from 0.0140778 to 0.0140778
Heightened Def Con from 0.0140778 to 0.0140778
Heightened Def Con from 0.0140778 to 0.0140778
Heightened Def Con from 0.0140778 to 0.0140778
Heightened Def Con from 0.0140778 to 0.0140778
Heightened Def Con from 0.0140778 to 0.0140778
Heightened Def Con from 0.0140778 to 0.0140778
Heightened Def Con from 0.0140778 to 0.0140778
Heightened Def Con from 0.0140778 to 0.0140778
Heightened Def Con from 0.0140778 to 0.0140778
Heightened Def Con from 0.0140778 to 0.0140778
Heightened Def Con from 0.0140778 to 0.0140778
Heightened Def Con from 0.0140778 to 0.0140778
Heightened Def Con from 0.0140778 to 0.0140778
Heightened Def Con from 0.0140778 to 0.0140778
Heightened Def Con from 0.0140778 to 0.0140778
Heightened Def Con from 0.0140778 to 0.0140778
Heightened Def Con from 0.0140778 to 0.0140778
Heightened Def Con from 0.0140778 to 0.0140778
Heightened Def Con from 0.0140778 to 0.0140778
Heightened Def Con from 0.0140778 to 0.0140778
Heightened Def Con from 0.0140778 to 0.0140778
Heightened Def Con from 0.0140778 to 0.0140778
Heightened Def Con from 0.0140778 to 0.0140778
Heightened Def Con from 0.0140778 to 0.0140778
Heightened Def Con from 0.0140778 +to 0.0140778
Heightened Def Con from 0.0140778 to 0.0140778
Heightened Def Con from 0.0140778 to 0.0140778
Heightened Def Con from 0.0140778 to 0.0140778
Heightened Def Con from 0.0140778 to 0.0140778
Heightened Def Con from 0.0140778 to 0.0140778
Heightened Def Con from 0.0140778 +to 0.0140778
Heightened Def Con from 0.0140778 to 0.0140778
Heightened Def Con from 0.0140778 to 0.0140778
Heightened Def Con from 0.0140778 to 0.0140778
Heightened Def Con from 0.0140778 to 0.0140778
Heightened Def Con from 0.0140778 to 0.0140778
Heightened Def Con from 0.0140778 to 0.0140778
Heightened Def Con from 0.0140778 to 0.0140778
Heightened Def Con from 0.0140778 to 0.0140778
Heightened Def Con from 0.0140778 to 0.0140778
Heightened Def Con from 0.0140778 to 0.0140778
Heightened Def Con from 0.0140778 to 0.0140778
Heightened Def Con from 0.0140778 to 0.0140778
Heightened Def Con from 0.0140778 to 0.0140778
Heightened Def Con from 0.0140778 to 0.0140778
Heightened Def Con from 0.0140778 to 0.0140778
Heightened Def Con from 0.0140778 to 0.0140778
Heightened Def Con from 0.0140778 to 0.0140778
Heightened Def Con from 0.0140778 to 0.0140778
Heightened Def Con from 0.0140778 to 0.0140778
Heightened Def Con from 0.0140778 to 0.0140778
Heightened Def Con from 0.0140778 to 0.0140778
Heightened Def Con from 0.0140778 to 0.0140778
Heightened Def Con from 0.0140778 to 0.0140778
Heightened Def Con from 0.0140778 to 0.0140778
Heightened Def Con from 0.0140778 to 0.0140778
Heightened Def Con from 0.0140778 to 0.0140778
Heightened Def Con from 0.0140778 to 0.0140778
Heightened Def Con from 0.0140778 to 0.0140778
Heightened Def Con from 0.0140778 to 0.0140778
Heightened Def Con from 0.0140778 to 0.0140778
Heightened Def Con from 0.0140778 to 0.0140778
Heightened Def Con from 0.0140778 to 0.0140778
Heightened Def Con from 0.0140778 to 0.0140778
Heightened Def Con from 0.0140778 to 0.0140778
Heightened Def Con from 0.0140778 to 0.0140778
Heightened Def Con from 0.0140778 to 0.0140778
Heightened Def Con from 0.0140778 +to 0.0140778
Heightened Def Con from 0.0140778 to 0.0140778
Heightened Def Con from 0.0140778 to 0.0140778
Heightened Def Con from 0.0140778 to 0.0140778
Heightened Def Con from 0.0140778 to 0.0140778
Heightened Def Con from 0.0140778 to 0.0140778
Heightened Def Con from 0.0140778 to 0.0140778
Heightened Def Con from 0.0140778 to 0.0140778
Heightened Def Con from 0.0140778 to 0.0140778
Heightened Def Con from 0.0140778 to 0.0140778
Heightened Def Con from 0.0140778 to 0.0140778
Heightened Def Con from 0.0140778 to 0.0140778
Heightened Def Con from 0.0140778 to 0.0140778
Heightened Def Con from 0.0140778 to 0.0140778
Heightened Def Con from 0.0140778 to 0.0140778
Heightened Def Con from 0.0140778 to 0.0140778
Heightened Def Con from 0.0140778 to 0.0140778
Heightened Def Con from 0.0140778 to 0.0140778
Heightened Def Con from 0.0140778 to 0.0140778
Heightened Def Con from 0.0140778 to 0.0140778
Heightened Def Con from 0.0140778 to 0.0140778
Heightened Def Con from 0.0140778 to 0.0140778
Heightened Def Con from 0.0140778 to 0.0140778
Heightened Def Con from 0.0140778 to 0.0140778
Heightened Def Con from 0.0140778 to 0.0140778
Heightened Def Con from 0.0140778 to 0.0140778
Heightened Def Con from 0.0140778 to 0.0140778
Heightened Def Con from 0.0140778 to 0.0140778
Heightened Def Con from 0.0140778 to 0.0140778
Heightened Def Con from 0.0140778 to 0.0140778
Heightened Def Con from 0.0140778 to 0.0140778
Heightened Def Con from 0.0140778 +to 0.0140778
Heightened Def Con from 0.0140778 to 0.0140778
Heightened Def Con from 0.0140778 to 0.0140778
Heightened Def Con from 0.0140778 +to 0.0140778
Heightened Def Con from 0.0140778 to 0.0140778
Heightened Def Con from 0.0140778 to 0.0140778
Heightened Def Con from 0.0140778 to 0.0140778
Heightened Def Con from 0.0140778 to 0.0140778
Heightened Def Con from 0.0140778 to 0.0140778
Heightened Def Con from 0.0140778 to 0.0140778
Heightened Def Con from 0.0140778 to 0.0140778
Heightened Def Con from 0.0140778 to 0.0140778
Heightened Def Con from 0.0140778 to 0.0140778
Heightened Def Con from 0.0140778 to 0.0140778
Heightened Def Con from 0.0140778 to 0.0140778
Heightened Def Con from 0.0140778 to 0.0140778
Heightened Def Con from 0.0140778 to 0.0140778
Heightened Def Con from 0.0140778 to 0.0140778
Heightened Def Con from 0.0140778 to 0.0140778
Heightened Def Con from 0.0140778 to 0.0140778
Heightened Def Con from 0.0140778 to 0.0140778
Heightened Def Con from 0.0140778 to 0.0140778
Heightened Def Con from 0.0140778 to 0.0140778
Heightened Def Con from 0.0140778 to 0.0140778
Heightened Def Con from 0.0140778 to 0.0140778
Heightened Def Con from 0.0140778 to 0.0140778
Heightened Def Con from 0.0140778 to 0.0140778
Heightened Def Con from 0.0140778 to 0.0140778
Heightened Def Con from 0.0140778 to 0.0140778
Heightened Def Con from 0.0140778 to 0.0140778
Heightened Def Con from 0.0140778 +to 0.0140778
Heightened Def Con from 0.0140778 to 0.0140778
Heightened Def Con from 0.0140778 to 0.0140778
Heightened Def Con from 0.0140778 to 0.0140778
Heightened Def Con from 0.0140778 +to 0.0140778
Heightened Def Con from 0.0140778 to 0.0140778
Heightened Def Con from 0.0140778 to 0.0140778
Heightened Def Con from 0.0140778 to 0.0140778
Heightened Def Con from 0.0140778 +to 0.0140778
Heightened Def Con from 0.0140778 to 0.0140778
Heightened Def Con from 0.0140778 to 0.0140778
Heightened Def Con from 0.0140778 to 0.0140778
Heightened Def Con from 0.0140778 to 0.0140778
Heightened Def Con from 0.0140778 to 0.0140778
Heightened Def Con from 0.0140778 to 0.0140778
Heightened Def Con from 0.0140778 to 0.0140778
Heightened Def Con from 0.0140778 to 0.0140778
Heightened Def Con from 0.0140778 to 0.0140778
Heightened Def Con from 0.0140778 to 0.0140778
Heightened Def Con from 0.0140778 to 0.0140778
Heightened Def Con from 0.0140778 to 0.0140778
Heightened Def Con from 0.0140778 to 0.0140778
Heightened Def Con from 0.0140778 to 0.0140778
Heightened Def Con from 0.0140778 to 0.0140778
Heightened Def Con from 0.0140778 to 0.0140778
Heightened Def Con from 0.0140778 to 0.0140778
Heightened Def Con from 0.0140778 +to 0.0140778
Heightened Def Con from 0.0140778 to 0.0140778
Heightened Def Con from 0.0140778 to 0.0140778
Heightened Def Con from 0.0140778 to 0.0140778
Heightened Def Con from 0.0140778 to 0.0140778
Heightened Def Con from 0.0140778 to 0.0140778
Heightened Def Con from 0.0140778 to 0.0140778
Heightened Def Con from 0.0140778 to 0.0140778
Heightened Def Con from 0.0140778 to 0.0140778
Heightened Def Con from 0.0140778 to 0.0140778
Heightened Def Con from 0.0140778 to 0.0140778
Heightened Def Con from 0.0140778 to 0.0140778
Heightened Def Con from 0.0140778 to 0.0140778
Heightened Def Con from 0.0140778 to 0.0140778
Heightened Def Con from 0.0140778 +to 0.0140778
Heightened Def Con from 0.0140778 to 0.0140778
Heightened Def Con from 0.0140778 to 0.0140778
Heightened Def Con from 0.0140778 +to 0.0140778
Heightened Def Con from 0.0140778 to 0.0140778
Heightened Def Con from 0.0140778 to 0.0140778
Heightened Def Con from 0.0140778 to 0.0140778
Heightened Def Con from 0.0140778 to 0.0140778
Heightened Def Con from 0.0140778 to 0.0140778
Heightened Def Con from 0.0140778 to 0.0140778
Heightened Def Con from 0.0140778 to 0.0140778
Heightened Def Con from 0.0140778 to 0.0140778
Heightened Def Con from 0.0140778 to 0.0140778
Heightened Def Con from 0.0140778 to 0.0140778
Heightened Def Con from 0.0140778 to 0.0140778
Heightened Def Con from 0.0140778 to 0.0140778
Heightened Def Con from 0.0140778 to 0.0140778
Heightened Def Con from 0.0140778 to 0.0140778
Heightened Def Con from 0.0140778 to 0.0140778
Heightened Def Con from 0.0140778 to 0.0140778
Heightened Def Con from 0.0140778 to 0.0140778
Heightened Def Con from 0.0140778 to 0.0140778
Heightened Def Con from 0.0140778 to 0.0140778
Heightened Def Con from 0.0140778 to 0.0140778
Heightened Def Con from 0.0140778 to 0.0140778
Heightened Def Con from 0.0140778 to 0.0140778
Heightened Def Con from 0.0140778 to 0.0140778
Heightened Def Con from 0.0140778 to 0.0140778
Heightened Def Con from 0.0140778 to 0.0140778
Heightened Def Con from 0.0140778 to 0.0140778
Heightened Def Con from 0.0140778 to 0.0140778
Heightened Def Con from 0.0140778 to 0.0140778
Heightened Def Con from 0.0140778 ++to 0.0140778
Heightened Def Con from 0.0140778 to 0.0140778
Heightened Def Con from 0.0140778 to 0.0140778
Heightened Def Con from 0.0140778 to 0.0140778
Heightened Def Con from 0.0140778 to 0.0140778
Heightened Def Con from 0.0140778 to 0.0140778
Heightened Def Con from 0.0140778 +to 0.0140778
Heightened Def Con from 0.0140778 to 0.0140778
Heightened Def Con from 0.0140778 to 0.0140778
Heightened Def Con from 0.0140778 to 0.0140778
Heightened Def Con from 0.0140778 to 0.0140778
Heightened Def Con from 0.0140778 to 0.0140778
Heightened Def Con from 0.0140778 to 0.0140778
Heightened Def Con from 0.0140778 to 0.0140778
Heightened Def Con from 0.0140778 to 0.0140778
Heightened Def Con from 0.0140778 to 0.0140778
Heightened Def Con from 0.0140778 to 0.0140778
Heightened Def Con from 0.0140778 to 0.0140778
Heightened Def Con from 0.0140778 to 0.0140778
Heightened Def Con from 0.0140778 +to 0.0140778
Heightened Def Con from 0.0140778 to 0.0140778
Heightened Def Con from 0.0140778 to 0.0140778
Heightened Def Con from 0.0140778 to 0.0140778
Heightened Def Con from 0.0140778 to 0.0140778
Heightened Def Con from 0.0140778 to 0.0140778
Heightened Def Con from 0.0140778 to 0.0140778
Heightened Def Con from 0.0140778 to 0.0140778
Heightened Def Con from 0.0140778 to 0.0140778
Heightened Def Con from 0.0140778 +to 0.0140778
Heightened Def Con from 0.0140778 to 0.0140778
Heightened Def Con from 0.0140778 to 0.0140778
Heightened Def Con from 0.0140778 to 0.0140778
Heightened Def Con from 0.0140778 to 0.0140778
Heightened Def Con from 0.0140778 to 0.0140778
Heightened Def Con from 0.0140778 to 0.0140778
Heightened Def Con from 0.0140778 to 0.0140778
Heightened Def Con from 0.0140778 to 0.0140778
Heightened Def Con from 0.0140778 to 0.0140778
Heightened Def Con from 0.0140778 to 0.0140778
Heightened Def Con from 0.0140778 to 0.0140778
Heightened Def Con from 0.0140778 to 0.0140778
Heightened Def Con from 0.0140778 to 0.0140778
Heightened Def Con from 0.0140778 to 0.0140778
Heightened Def Con from 0.0140778 to 0.0140778
Heightened Def Con from 0.0140778 to 0.0140778
Heightened Def Con from 0.0140778 to 0.0140778
Heightened Def Con from 0.0140778 to 0.0140778
Heightened Def Con from 0.0140778 to 0.0140778
Heightened Def Con from 0.0140778 to 0.0140778
Heightened Def Con from 0.0140778 to 0.0140778
Heightened Def Con from 0.0140778 to 0.0140778
Heightened Def Con from 0.0140778 to 0.0140778
Heightened Def Con from 0.0140778 to 0.0140778
Heightened Def Con from 0.0140778 to 0.0140778
Heightened Def Con from 0.0140778 to 0.0140778
Heightened Def Con from 0.0140778 to 0.0140778
Heightened Def Con from 0.0140778 to 0.0140778
Heightened Def Con from 0.0140778 to 0.0140778
Heightened Def Con from 0.0140778 to 0.0140778
Heightened Def Con from 0.0140778 to 0.0140778
Heightened Def Con from 0.0140778 to 0.0140778
Heightened Def Con from 0.0140778 to 0.0140778
Heightened Def Con from 0.0140778 to 0.0140778
Heightened Def Con from 0.0140778 to 0.0140778
Heightened Def Con from 0.0140778 to 0.0140778
Heightened Def Con from 0.0140778 to 0.0140778
Heightened Def Con from 0.0140778 to 0.0140778
Heightened Def Con from 0.0140778 to 0.0140778
Heightened Def Con from 0.0140778 to 0.0140778
Heightened Def Con from 0.0140778 to 0.0140778
Heightened Def Con from 0.0140778 to 0.0140778
Heightened Def Con from 0.0140778 to 0.0140778
Heightened Def Con from 0.0140778 to 0.0140778
Heightened Def Con from 0.0140778 to 0.0140778
Heightened Def Con from 0.0140778 to 0.0140778
Heightened Def Con from 0.0140778 +to 0.0140778
Heightened Def Con from 0.0140778 to 0.0140778
Heightened Def Con from 0.0140778 to 0.0140778
Heightened Def Con from 0.0140778 to 0.0140778
Heightened Def Con from 0.0140778 to 0.0140778
Heightened Def Con from 0.0140778 to 0.0140778
Heightened Def Con from 0.0140778 to 0.0140778
Heightened Def Con from 0.0140778 to 0.0140778
Heightened Def Con from 0.0140778 to 0.0140778
Heightened Def Con from 0.0140778 to 0.0140778
Heightened Def Con from 0.0140778 +to 0.0140778
Heightened Def Con from 0.0140778 to 0.0140778
Heightened Def Con from 0.0140778 to 0.0140778
Heightened Def Con from 0.0140778 to 0.0140778
Heightened Def Con from 0.0140778 to 0.0140778
Heightened Def Con from 0.0140778 +to 0.0140778
Heightened Def Con from 0.0140778 to 0.0140778
Heightened Def Con from 0.0140778 to 0.0140778
Heightened Def Con from 0.0140778 to 0.0140778
Heightened Def Con from 0.0140778 to 0.0140778
Heightened Def Con from 0.0140778 to 0.0140778
Heightened Def Con from 0.0140778 to 0.0140778
Heightened Def Con from 0.0140778 to 0.0140778
Heightened Def Con from 0.0140778 to 0.0140778
Heightened Def Con from 0.0140778 to 0.0140778
Heightened Def Con from 0.0140778 to 0.0140778
Heightened Def Con from 0.0140778 to 0.0140778
Heightened Def Con from 0.0140778 to 0.0140778
Heightened Def Con from 0.0140778 to 0.0140778
Heightened Def Con from 0.0140778 +to 0.0140778
Heightened Def Con from 0.0140778 to 0.0140778
Heightened Def Con from 0.0140778 to 0.0140778
Heightened Def Con from 0.0140778 to 0.0140778
Heightened Def Con from 0.0140778 to 0.0140778
Heightened Def Con from 0.0140778 to 0.0140778
Heightened Def Con from 0.0140778 to 0.0140778
Heightened Def Con from 0.0140778 to 0.0140778
Heightened Def Con from 0.0140778 to 0.0140778
Heightened Def Con from 0.0140778 to 0.0140778
Heightened Def Con from 0.0140778 to 0.0140778
Heightened Def Con from 0.0140778 to 0.0140778
Heightened Def Con from 0.0140778 to 0.0140778
Heightened Def Con from 0.0140778 to 0.0140778
Heightened Def Con from 0.0140778 to 0.0140778
Heightened Def Con from 0.0140778 to 0.0140778
Heightened Def Con from 0.0140778 to 0.0140778
Heightened Def Con from 0.0140778 to 0.0140778
Heightened Def Con from 0.0140778 to 0.0140778
Heightened Def Con from 0.0140778 to 0.0140778
Heightened Def Con from 0.0140778 to 0.0140778
Heightened Def Con from 0.0140778 to 0.0140778
Heightened Def Con from 0.0140778 to 0.0140778
Heightened Def Con from 0.0140778 to 0.0140778
Heightened Def Con from 0.0140778 to 0.0140778
Heightened Def Con from 0.0140778 to 0.0140778
Heightened Def Con from 0.0140778 to 0.0140778
Heightened Def Con from 0.0140778 to 0.0140778
Heightened Def Con from 0.0140778 +to 0.0140778
Heightened Def Con from 0.0140778 to 0.0140778
Heightened Def Con from 0.0140778 to 0.0140778
Heightened Def Con from 0.0140778 to 0.0140778
Heightened Def Con from 0.0140778 to 0.0140778
Heightened Def Con from 0.0140778 +to 0.0140778
Heightened Def Con from 0.0140778 to 0.0140778
Heightened Def Con from 0.0140778 +to 0.0140778
Heightened Def Con from 0.0140778 to 0.0140778
Heightened Def Con from 0.0140778 to 0.0140778
Heightened Def Con from 0.0140778 to 0.0140778
Heightened Def Con from 0.0140778 to 0.0140778
Heightened Def Con from 0.0140778 to 0.0140778
Heightened Def Con from 0.0140778 to 0.0140778
Heightened Def Con from 0.0140778 to 0.0140778
Heightened Def Con from 0.0140778 to 0.0140778
Heightened Def Con from 0.0140778 to 0.0140778
Heightened Def Con from 0.0140778 to 0.0140778
Heightened Def Con from 0.0140778 to 0.0140778
Heightened Def Con from 0.0140778 to 0.0140778
Heightened Def Con from 0.0140778 to 0.0140778
Heightened Def Con from 0.0140778 to 0.0140778
Heightened Def Con from 0.0140778 to 0.0140778
Heightened Def Con from 0.0140778 to 0.0140778
Heightened Def Con from 0.0140778 to 0.0140778
Heightened Def Con from 0.0140778 to 0.0140778
Heightened Def Con from 0.0140778 to 0.0140778
Heightened Def Con from 0.0140778 to 0.0140778
Heightened Def Con from 0.0140778 to 0.0140778
Heightened Def Con from 0.0140778 to 0.0140778
Heightened Def Con from 0.0140778 to 0.0140778
Heightened Def Con from 0.0140778 to 0.0140778
Heightened Def Con from 0.0140778 to 0.0140778
Heightened Def Con from 0.0140778 to 0.0140778
Heightened Def Con from 0.0140778 to 0.0140778
Heightened Def Con from 0.0140778 ++to 0.0140778
Heightened Def Con from 0.0140778 to 0.0140778
Heightened Def Con from 0.0140778 +++to 0.0140778
Heightened Def Con from 0.0140778 to 0.0140778
Heightened Def Con from 0.0140778 +to 0.0140778
Heightened Def Con from 0.0140778 to 0.0140778
Heightened Def Con from 0.0140778 to 0.0140778
Heightened Def Con from 0.0140778 to 0.0140778
Heightened Def Con from 0.0140778 to 0.0140778
Heightened Def Con from 0.0140778 to 0.0140778
Heightened Def Con from 0.0140778 to 0.0140778
Heightened Def Con from 0.0140778 to 0.0140778
Heightened Def Con from 0.0140778 to 0.0140778
Heightened Def Con from 0.0140778 to 0.0140778
Heightened Def Con from 0.0140778 to 0.0140778
Heightened Def Con from 0.0140778 to 0.0140778
Heightened Def Con from 0.0140778 to 0.0140778
Heightened Def Con from 0.0140778 to 0.0140778
Heightened Def Con from 0.0140778 to 0.0140778
Heightened Def Con from 0.0140778 to 0.0140778
Heightened Def Con from 0.0140778 to 0.0140778
Heightened Def Con from 0.0140778 to 0.0140778
Heightened Def Con from 0.0140778 to 0.0140778
Heightened Def Con from 0.0140778 to 0.0140778
Heightened Def Con from 0.0140778 to 0.0140778
Heightened Def Con from 0.0140778 to 0.0140778
Heightened Def Con from 0.0140778 to 0.0140778
Heightened Def Con from 0.0140778 to 0.0140778
Heightened Def Con from 0.0140778 to 0.0140778
Heightened Def Con from 0.0140778 +to 0.0140778
Heightened Def Con from 0.0140778 to 0.0140778
Heightened Def Con from 0.0140778 to 0.0140778
Heightened Def Con from 0.0140778 to 0.0140778
Heightened Def Con from 0.0140778 to 0.0140778
Heightened Def Con from 0.0140778 to 0.0140778
Heightened Def Con from 0.0140778 to 0.0140778
Heightened Def Con from 0.0140778 to 0.0140778
Heightened Def Con from 0.0140778 +to 0.0140778
Heightened Def Con from 0.0140778 to 0.0140778
Heightened Def Con from 0.0140778 to 0.0140778
Heightened Def Con from 0.0140778 to 0.0140778
Heightened Def Con from 0.0140778 to 0.0140778
Heightened Def Con from 0.0140778 to 0.0140778
Heightened Def Con from 0.0140778 to 0.0140778
Heightened Def Con from 0.0140778 to 0.0140778
Heightened Def Con from 0.0140778 to 0.0140778
Heightened Def Con from 0.0140778 to 0.0140778
Heightened Def Con from 0.0140778 to 0.0140778
Heightened Def Con from 0.0140778 to 0.0140778
Heightened Def Con from 0.0140778 to 0.0140778
Heightened Def Con from 0.0140778 to 0.0140778
Heightened Def Con from 0.0140778 to 0.0140778
Heightened Def Con from 0.0140778 to 0.0140778
Heightened Def Con from 0.0140778 to 0.0140778
Heightened Def Con from 0.0140778 to 0.0140778
Heightened Def Con from 0.0140778 to 0.0140778
Heightened Def Con from 0.0140778 to 0.0140778
Heightened Def Con from 0.0140778 to 0.0140778
Heightened Def Con from 0.0140778 to 0.0140778
Heightened Def Con from 0.0140778 to 0.0140778
Heightened Def Con from 0.0140778 +to 0.0140778
Heightened Def Con from 0.0140778 to 0.0140778
Heightened Def Con from 0.0140778 to 0.0140778
Heightened Def Con from 0.0140778 to 0.0140778
Heightened Def Con from 0.0140778 to 0.0140778
Heightened Def Con from 0.0140778 to 0.0140778
Heightened Def Con from 0.0140778 to 0.0140778
Heightened Def Con from 0.0140778 to 0.0140778
Heightened Def Con from 0.0140778 to 0.0140778
Heightened Def Con from 0.0140778 to 0.0140778
Heightened Def Con from 0.0140778 to 0.0140778
Heightened Def Con from 0.0140778 to 0.0140778
Heightened Def Con from 0.0140778 to 0.0140778
Heightened Def Con from 0.0140778 to 0.0140778
Heightened Def Con from 0.0140778 to 0.0140778
Heightened Def Con from 0.0140778 to 0.0140778
Heightened Def Con from 0.0140778 to 0.0140778
Heightened Def Con from 0.0140778 to 0.0140778
Heightened Def Con from 0.0140778 to 0.0140778
Heightened Def Con from 0.0140778 to 0.0140778
Heightened Def Con from 0.0140778 to 0.0140778
Heightened Def Con from 0.0140778 to 0.0140778
[...]
Heightened Def Con from 0.0263696 to 0.0263696
Heightened Def Con from 0.0263696 to 0.0263696
Heightened Def Con from 0.0263696 ++to 0.0263696
Heightened Def Con from 0.0263696 to 0.0263696
Heightened Def Con from 0.0263696 to 0.0263696
Heightened Def Con from 0.0263696 to 0.0263696
Heightened Def Con from 0.0263696 to 0.0263696
Heightened Def Con from 0.0263696 to 0.0263696
Heightened Def Con from 0.0263696 to 0.0263696
Heightened Def Con from 0.0263696 to 0.0263696
Heightened Def Con from 0.0263696 +to 0.0263696
Heightened Def Con from 0.0263696 to 0.0263696
Heightened Def Con from 0.0263696 to 0.0263696
Heightened Def Con from 0.0263696 to 0.0263696
Heightened Def Con from 0.0263696 +to 0.0263696
Heightened Def Con from 0.0263696 to 0.0263696
Heightened Def Con from 0.0263696 to 0.0263696
Heightened Def Con from 0.0263696 to 0.0263696
Heightened Def Con from 0.0263696 to 0.0263696
Heightened Def Con from 0.0263696 to 0.0263696
Heightened Def Con from 0.0263696 to 0.0263696
Heightened Def Con from 0.0263696 to 0.0263696
Heightened Def Con from 0.0263696 to 0.0263696
Heightened Def Con from 0.0263696 to 0.0263696
Heightened Def Con from 0.0263696 to 0.0263696
Heightened Def Con from 0.0263696 to 0.0263696
Heightened Def Con from 0.0263696 to 0.0263696
Heightened Def Con from 0.0263696 to 0.0263696
Heightened Def Con from 0.0263696 ++to 0.0263696
Heightened Def Con from 0.0263696 to 0.0263696
Heightened Def Con from 0.0263696 to 0.0263696
Heightened Def Con from 0.0263696 to 0.0263696
Heightened Def Con from 0.0263696 to 0.0263696
Heightened Def Con from 0.0263696 to 0.0263696
Heightened Def Con from 0.0263696 to 0.0263696
Heightened Def Con from 0.0263696 to 0.0263696
Heightened Def Con from 0.0263696 to 0.0263696
Heightened Def Con from 0.0263696 +to 0.0263696
Heightened Def Con from 0.0263696 +to 0.0263696
Heightened Def Con from 0.0263696 to 0.0263696
Heightened Def Con from 0.0263696 to 0.0263696
Heightened Def Con from 0.0263696 to 0.0263696
Heightened Def Con from 0.0263696 to 0.0263696
Heightened Def Con from 0.0263696 to 0.0263696
Heightened Def Con from 0.0263696 to 0.0263696
Heightened Def Con from 0.0263696 to 0.0263696
Heightened Def Con from 0.0263696 to 0.0263696
Heightened Def Con from 0.0263696 to 0.0263696
Heightened Def Con from 0.0263696 +to 0.0263696
Heightened Def Con from 0.0263696 to 0.0263696
Heightened Def Con from 0.0263696 to 0.0263696
Heightened Def Con from 0.0263696 to 0.0263696
Heightened Def Con from 0.0263696 +++to 0.0263696
Heightened Def Con from 0.0263696 to 0.0263696
Heightened Def Con from 0.0263696 to 0.0263696
Heightened Def Con from 0.0263696 to 0.0263696
Heightened Def Con from 0.0263696 +to 0.0263696
Heightened Def Con from 0.0263696 to 0.0263696
Heightened Def Con from 0.0263696 to 0.0263696
Heightened Def Con from 0.0263696 to 0.0263696
Heightened Def Con from 0.0263696 to 0.0263696
Heightened Def Con from 0.0263696 to 0.0263696
Heightened Def Con from 0.0263696 to 0.0263696
Heightened Def Con from 0.0263696 +to 0.0263696
Heightened Def Con from 0.0263696 to 0.0263696
Heightened Def Con from 0.0263696 +to 0.0263696
Heightened Def Con from 0.0263696 to 0.0263696
Heightened Def Con from 0.0263696 to 0.0263696
Heightened Def Con from 0.0263696 to 0.0263696
Heightened Def Con from 0.0263696 to 0.0263696
Heightened Def Con from 0.0263696 to 0.0263696
Heightened Def Con from 0.0263696 +++to 0.0263696
Heightened Def Con from 0.0263696 ++to 0.0263696
Heightened Def Con from 0.0263696 to 0.0263696
Heightened Def Con from 0.0263696 to 0.0263696
Heightened Def Con from 0.0263696 to 0.0263696
Heightened Def Con from 0.0263696 to 0.0263696
Heightened Def Con from 0.0263696 to 0.0263696
Heightened Def Con from 0.0263696 to 0.0263696
Heightened Def Con from 0.0263696 +to 0.0263696
Heightened Def Con from 0.0263696 to 0.0263696
Heightened Def Con from 0.0263696 +to 0.0263696
Heightened Def Con from 0.0263696 to 0.0263696
Heightened Def Con from 0.0263696 to 0.0263696
Heightened Def Con from 0.0263696 +to 0.0263696
Heightened Def Con from 0.0263696 to 0.0263696
Heightened Def Con from 0.0263696 to 0.0263696
Heightened Def Con from 0.0263696 to 0.0263696
Heightened Def Con from 0.0263696 +to 0.0263696
Heightened Def Con from 0.0263696 to 0.0263696
Heightened Def Con from 0.0263696 to 0.0263696
Heightened Def Con from 0.0263696 to 0.0263696
Heightened Def Con from 0.0263696 to 0.0263696
Heightened Def Con from 0.0263696 to 0.0263696
Heightened Def Con from 0.0263696 to 0.0263696
Heightened Def Con from 0.0263696 to 0.0263696
Heightened Def Con from 0.0263696 to 0.0263696
Heightened Def Con from 0.0263696 to 0.0263696
Heightened Def Con from 0.0263696 to 0.0263696
Heightened Def Con from 0.0263696 to 0.0263696
Heightened Def Con from 0.0263696 +to 0.0263696
Heightened Def Con from 0.0263696 to 0.0263696
Heightened Def Con from 0.0263696 to 0.0263696
Heightened Def Con from 0.0263696 to 0.0263696
Heightened Def Con from 0.0263696 +to 0.0263696
Heightened Def Con from 0.0263696 to 0.0263696
Heightened Def Con from 0.0263696 to 0.0263696
Heightened Def Con from 0.0263696 to 0.0263696
Heightened Def Con from 0.0263696 to 0.0263696
Heightened Def Con from 0.0263696 to 0.0263696
Heightened Def Con from 0.0263696 to 0.0263696
Heightened Def Con from 0.0263696 to 0.0263696
Heightened Def Con from 0.0263696 to 0.0263696
Heightened Def Con from 0.0263696 to 0.0263696
Heightened Def Con from 0.0263696 to 0.0263696
Heightened Def Con from 0.0263696 +to 0.0263696
Heightened Def Con from 0.0263696 to 0.0263696
Heightened Def Con from 0.0263696 +to 0.0263696
Heightened Def Con from 0.0263696 to 0.0263696
Heightened Def Con from 0.0263696 +to 0.0263696
Heightened Def Con from 0.0263696 to 0.0263696
Heightened Def Con from 0.0263696 to 0.0263696
Heightened Def Con from 0.0263696 to 0.0263696
Heightened Def Con from 0.0263696 to 0.0263696
Heightened Def Con from 0.0263696 to 0.0263696
Heightened Def Con from 0.0263696 +to 0.0263696
Heightened Def Con from 0.0263696 to 0.0263696
Heightened Def Con from 0.0263696 +to 0.0263696
Heightened Def Con from 0.0263696 to 0.0263696
Heightened Def Con from 0.0263696 to 0.0263696
Heightened Def Con from 0.0263696 to 0.0263696
Heightened Def Con from 0.0263696 to 0.0263696
Heightened Def Con from 0.0263696 to 0.0263696
Heightened Def Con from 0.0263696 to 0.0263696
Heightened Def Con from 0.0263696 to 0.0263696
Heightened Def Con from 0.0263696 +to 0.0263696
Heightened Def Con from 0.0263696 to 0.0263696
Heightened Def Con from 0.0263696 to 0.0263696
Heightened Def Con from 0.0263696 to 0.0263696
Heightened Def Con from 0.0263696 to 0.0263696
Heightened Def Con from 0.0263696 to 0.0263696
Heightened Def Con from 0.0263696 to 0.0263696
Heightened Def Con from 0.0263696 to 0.0263696
Heightened Def Con from 0.0263696 to 0.0263696
Heightened Def Con from 0.0263696 ++++to 0.0263696
Heightened Def Con from 0.0263696 to 0.0263696
Heightened Def Con from 0.0263696 to 0.0263696
Heightened Def Con from 0.0263696 to 0.0263696
Heightened Def Con from 0.0263696 +to 0.0263696
Heightened Def Con from 0.0263696 ++to 0.0263696
Heightened Def Con from 0.0263696 to 0.0263696
Heightened Def Con from 0.0263696 to 0.0263696
Heightened Def Con from 0.0263696 to 0.0263696
Heightened Def Con from 0.0263696 to 0.0263696
Heightened Def Con from 0.0263696 +to 0.0263696
Heightened Def Con from 0.0263696 to 0.0263696
Heightened Def Con from 0.0263696 to 0.0263696
Heightened Def Con from 0.0263696 to 0.0263696
Heightened Def Con from 0.0263696 +to 0.0263696
Heightened Def Con from 0.0263696 to 0.0263696
Heightened Def Con from 0.0263696 +++to 0.0263696
Heightened Def Con from 0.0263696 to 0.0263696
Heightened Def Con from 0.0263696 to 0.0263696
Heightened Def Con from 0.0263696 to 0.0263696
Heightened Def Con from 0.0263696 to 0.0263696
Heightened Def Con from 0.0263696 to 0.0263696
Heightened Def Con from 0.0263696 to 0.0263696
Heightened Def Con from 0.0263696 to 0.0263696
Heightened Def Con from 0.0263696 to 0.0263696
Heightened Def Con from 0.0263696 to 0.0263696
Heightened Def Con from 0.0263696 to 0.0263696
Heightened Def Con from 0.0263696 to 0.0263696
Heightened Def Con from 0.0263696 to 0.0263696
Heightened Def Con from 0.0263696 to 0.0263696
Heightened Def Con from 0.0263696 to 0.0263696
Heightened Def Con from 0.0263696 +to 0.0263696
Heightened Def Con from 0.0263696 to 0.0263696
Heightened Def Con from 0.0263696 to 0.0263696
Heightened Def Con from 0.0263696 ++to 0.0263696
Heightened Def Con from 0.0263696 to 0.0263696
Heightened Def Con from 0.0263696 to 0.0263696
Heightened Def Con from 0.0263696 +to 0.0263696
Heightened Def Con from 0.0263696 to 0.0263696
Heightened Def Con from 0.0263696 +to 0.0263696
Heightened Def Con from 0.0263696 to 0.0263696
Heightened Def Con from 0.0263696 to 0.0263696
Heightened Def Con from 0.0263696 to 0.0263696
Heightened Def Con from 0.0263696 +to 0.0263696
Heightened Def Con from 0.0263696 +to 0.0263696
Heightened Def Con from 0.0263696 to 0.0263696
Heightened Def Con from 0.0263696 to 0.0263696
Heightened Def Con from 0.0263696 to 0.0263696
Heightened Def Con from 0.0263696 to 0.0263696
Heightened Def Con from 0.0263696 to 0.0263696
Heightened Def Con from 0.0263696 +to 0.0263696
Heightened Def Con from 0.0263696 to 0.0263696
Heightened Def Con from 0.0263696 to 0.0263696
Heightened Def Con from 0.0263696 to 0.0263696
Heightened Def Con from 0.0263696 to 0.0263696
Heightened Def Con from 0.0263696 +to 0.0263696
Heightened Def Con from 0.0263696 +to 0.0263696
Heightened Def Con from 0.0263696 to 0.0263696
Heightened Def Con from 0.0263696 to 0.0263696
Heightened Def Con from 0.0263696 to 0.0263696
Heightened Def Con from 0.0263696 to 0.0263696
Heightened Def Con from 0.0263696 to 0.0263696
Heightened Def Con from 0.0263696 to 0.0263696
Heightened Def Con from 0.0263696 +to 0.0263696
Heightened Def Con from 0.0263696 ++to 0.0263696
Heightened Def Con from 0.0263696 to 0.0263696
Heightened Def Con from 0.0263696 ++to 0.0263696
Heightened Def Con from 0.0263696 +to 0.0263696
Heightened Def Con from 0.0263696 to 0.0263696
Heightened Def Con from 0.0263696 to 0.0263696
Heightened Def Con from 0.0263696 to 0.0263696
Heightened Def Con from 0.0263696 +to 0.0263696
Heightened Def Con from 0.0263696 to 0.0263696
Heightened Def Con from 0.0263696 to 0.0263696
Heightened Def Con from 0.0263696 +to 0.0263696
Heightened Def Con from 0.0263696 to 0.0263696
Heightened Def Con from 0.0263696 to 0.0263696
Heightened Def Con from 0.0263696 to 0.0263696
Heightened Def Con from 0.0263696 +to 0.0263696
Heightened Def Con from 0.0263696 to 0.0263696
Heightened Def Con from 0.0263696 +to 0.0263696
Heightened Def Con from 0.0263696 to 0.0263696
Heightened Def Con from 0.0263696 +to 0.0263696
Heightened Def Con from 0.0263696 +to 0.0263696
Heightened Def Con from 0.0263696 to 0.0263696
Heightened Def Con from 0.0263696 +++to 0.0263696
Heightened Def Con from 0.0263696 to 0.0263696
Heightened Def Con from 0.0263696 to 0.0263696
Heightened Def Con from 0.0263696 to 0.0263696
Heightened Def Con from 0.0263696 to 0.0263696
Heightened Def Con from 0.0263696 to 0.0263696
Heightened Def Con from 0.0263696 to 0.0263696
Heightened Def Con from 0.0263696 to 0.0263696
Heightened Def Con from 0.0263696 to 0.0263696
Heightened Def Con from 0.0263696 to 0.0263696
Heightened Def Con from 0.0263696 to 0.0263696
Heightened Def Con from 0.0263696 to 0.0263696
Heightened Def Con from 0.0263696 to 0.0263696
Heightened Def Con from 0.0263696 to 0.0263696
Heightened Def Con from 0.0263696 to 0.0263696
Heightened Def Con from 0.0263696 to 0.0263696
Heightened Def Con from 0.0263696 to 0.0263696
Heightened Def Con from 0.0263696 +++to 0.0263696
Heightened Def Con from 0.0263696 to 0.0263696
Heightened Def Con from 0.0263696 to 0.0263696
Heightened Def Con from 0.0263696 to 0.0263696
Heightened Def Con from 0.0263696 to 0.0263696
Heightened Def Con from 0.0263696 to 0.0263696
Heightened Def Con from 0.0263696 +to 0.0263696
Heightened Def Con from 0.0263696 to 0.0263696
Heightened Def Con from 0.0263696 to 0.0263696
Heightened Def Con from 0.0263696 to 0.0263696
Heightened Def Con from 0.0263696 to 0.0263696
Heightened Def Con from 0.0263696 to 0.0263696
Heightened Def Con from 0.0263696 to 0.0263696
Heightened Def Con from 0.0263696 +to 0.0263696
Heightened Def Con from 0.0263696 to 0.0263696
Heightened Def Con from 0.0263696 to 0.0263696
Heightened Def Con from 0.0263696 to 0.0263696
Heightened Def Con from 0.0263696 to 0.0263696
Heightened Def Con from 0.0263696 to 0.0263696
Heightened Def Con from 0.0263696 to 0.0263696
Heightened Def Con from 0.0263696 to 0.0263696
Heightened Def Con from 0.0263696 to 0.0263696
Heightened Def Con from 0.0263696 +++to 0.0263696
Heightened Def Con from 0.0263696 to 0.0263696
Heightened Def Con from 0.0263696 to 0.0263696
Heightened Def Con from 0.0263696 to 0.0263696
Heightened Def Con from 0.0263696 +to 0.0263696
Heightened Def Con from 0.0263696 to 0.0263696
Heightened Def Con from 0.0263696 to 0.0263696
Heightened Def Con from 0.0263696 to 0.0263696
Heightened Def Con from 0.0263696 to 0.0263696
Heightened Def Con from 0.0263696 to 0.0263696
Heightened Def Con from 0.0263696 to 0.0263696
Heightened Def Con from 0.0263696 +to 0.0263696
Heightened Def Con from 0.0263696 to 0.0263696
Heightened Def Con from 0.0263696 to 0.0263696
Heightened Def Con from 0.0263696 to 0.0263696
Heightened Def Con from 0.0263696 to 0.0263696
Heightened Def Con from 0.0263696 to 0.0263696
Heightened Def Con from 0.0263696 to 0.0263696
Heightened Def Con from 0.0263696 +to 0.0263696
Heightened Def Con from 0.0263696 to 0.0263696
Heightened Def Con from 0.0263696 to 0.0263696
Heightened Def Con from 0.0263696 to 0.0263696
Heightened Def Con from 0.0263696 to 0.0263696
Heightened Def Con from 0.0263696 to 0.0263696
Heightened Def Con from 0.0263696 to 0.0263696
Heightened Def Con from 0.0263696 to 0.0263696
Heightened Def Con from 0.0263696 to 0.0263696
Heightened Def Con from 0.0263696 +to 0.0263696
Heightened Def Con from 0.0263696 +to 0.0263696
Heightened Def Con from 0.0263696 to 0.0263696
Heightened Def Con from 0.0263696 to 0.0263696
Heightened Def Con from 0.0263696 +to 0.0263696
Heightened Def Con from 0.0263696 to 0.0263696
Heightened Def Con from 0.0263696 to 0.0263696
Heightened Def Con from 0.0263696 to 0.0263696
Heightened Def Con from 0.0263696 to 0.0263696
Heightened Def Con from 0.0263696 to 0.0263696
Heightened Def Con from 0.0263696 +to 0.0263696
Heightened Def Con from 0.0263696 to 0.0263696
Heightened Def Con from 0.0263696 to 0.0263696
Heightened Def Con from 0.0263696 +to 0.0263696
Heightened Def Con from 0.0263696 to 0.0263696
Heightened Def Con from 0.0263696 to 0.0263696
Heightened Def Con from 0.0263696 to 0.0263696
Heightened Def Con from 0.0263696 to 0.0263696
Heightened Def Con from 0.0263696 to 0.0263696
Heightened Def Con from 0.0263696 to 0.0263696
Heightened Def Con from 0.0263696 +to 0.0263696
Heightened Def Con from 0.0263696 +to 0.0263696
Heightened Def Con from 0.0263696 to 0.0263696
Heightened Def Con from 0.0263696 to 0.0263696
Heightened Def Con from 0.0263696 to 0.0263696
Heightened Def Con from 0.0263696 to 0.0263696
Heightened Def Con from 0.0263696 +to 0.0263696
Heightened Def Con from 0.0263696 to 0.0263696
Heightened Def Con from 0.0263696 to 0.0263696
Heightened Def Con from 0.0263696 to 0.0263696
Heightened Def Con from 0.0263696 to 0.0263696
Heightened Def Con from 0.0263696 to 0.0263696
Heightened Def Con from 0.0263696 to 0.0263696
Heightened Def Con from 0.0263696 +to 0.0263696
Heightened Def Con from 0.0263696 to 0.0263696
Heightened Def Con from 0.0263696 to 0.0263696
Heightened Def Con from 0.0263696 to 0.0263696
Heightened Def Con from 0.0263696 +to 0.0263696
Heightened Def Con from 0.0263696 to 0.0263696
Heightened Def Con from 0.0263696 to 0.0263696
Heightened Def Con from 0.0263696 +to 0.0263696
Heightened Def Con from 0.0263696 to 0.0263696
Heightened Def Con from 0.0263696 +to 0.0263696
Heightened Def Con from 0.0263696 +to 0.0263696
Heightened Def Con from 0.0263696 to 0.0263696
Heightened Def Con from 0.0263696 +to 0.0263696
Heightened Def Con from 0.0263696 to 0.0263696
Heightened Def Con from 0.0263696 to 0.0263696
Heightened Def Con from 0.0263696 +to 0.0263696
Heightened Def Con from 0.0263696 to 0.0263696
Heightened Def Con from 0.0263696 to 0.0263696
Heightened Def Con from 0.0263696 to 0.0263696
Heightened Def Con from 0.0263696 +to 0.0263696
Heightened Def Con from 0.0263696 to 0.0263696
Heightened Def Con from 0.0263696 to 0.0263696
Heightened Def Con from 0.0263696 to 0.0263696
Heightened Def Con from 0.0263696 to 0.0263696
Heightened Def Con from 0.0263696 to 0.0263696
Heightened Def Con from 0.0263696 to 0.0263696
Heightened Def Con from 0.0263696 +to 0.0263696
Heightened Def Con from 0.0263696 to 0.0263696
Heightened Def Con from 0.0263696 to 0.0263696
Heightened Def Con from 0.0263696 to 0.0263696
Heightened Def Con from 0.0263696 ++to 0.0263696
Heightened Def Con from 0.0263696 to 0.0263696
Heightened Def Con from 0.0263696 to 0.0263696
Heightened Def Con from 0.0263696 to 0.0263696
Heightened Def Con from 0.0263696 to 0.0263696
Heightened Def Con from 0.0263696 to 0.0263696
Heightened Def Con from 0.0263696 +++to 0.0263696
Heightened Def Con from 0.0263696 to 0.0263696
Heightened Def Con from 0.0263696 +to 0.0263696
Heightened Def Con from 0.0263696 to 0.0263696
Heightened Def Con from 0.0263696 to 0.0263696
Heightened Def Con from 0.0263696 to 0.0263696
Heightened Def Con from 0.0263696 ++to 0.0263696
Heightened Def Con from 0.0263696 to 0.0263696
Heightened Def Con from 0.0263696 to 0.0263696
Heightened Def Con from 0.0263696 to 0.0263696
Heightened Def Con from 0.0263696 to 0.0263696
Heightened Def Con from 0.0263696 +to 0.0263696
Heightened Def Con from 0.0263696 to 0.0263696
Heightened Def Con from 0.0263696 to 0.0263696
Heightened Def Con from 0.0263696 to 0.0263696
Heightened Def Con from 0.0263696 to 0.0263696
Heightened Def Con from 0.0263696 to 0.0263696
Heightened Def Con from 0.0263696 to 0.0263696
Heightened Def Con from 0.0263696 to 0.0263696
Heightened Def Con from 0.0263696 to 0.0263696
Heightened Def Con from 0.0263696 to 0.0263696
Heightened Def Con from 0.0263696 to 0.0263696
Heightened Def Con from 0.0263696 to 0.0263696
Heightened Def Con from 0.0263696 to 0.0263696
Heightened Def Con from 0.0263696 to 0.0263696
Heightened Def Con from 0.0263696 to 0.0263696
Heightened Def Con from 0.0263696 to 0.0263696
Heightened Def Con from 0.0263696 to 0.0263696
Heightened Def Con from 0.0263696 to 0.0263696
Heightened Def Con from 0.0263696 to 0.0263696
Heightened Def Con from 0.0263696 to 0.0263696
Heightened Def Con from 0.0263696 to 0.0263696
Heightened Def Con from 0.0263696 to 0.0263696
Heightened Def Con from 0.0263696 to 0.0263696
Heightened Def Con from 0.0263696 to 0.0263696
Heightened Def Con from 0.0263696 ++to 0.0263696
Heightened Def Con from 0.0263696 to 0.0263696
Heightened Def Con from 0.0263696 +to 0.0263696
Heightened Def Con from 0.0263696 to 0.0263696
Heightened Def Con from 0.0263696 +to 0.0263696
Heightened Def Con from 0.0263696 to 0.0263696
Heightened Def Con from 0.0263696 to 0.0263696
Heightened Def Con from 0.0263696 to 0.0263696
Heightened Def Con from 0.0263696 to 0.0263696
Heightened Def Con from 0.0263696 +to 0.0263696
Heightened Def Con from 0.0263696 to 0.0263696
Heightened Def Con from 0.0263696 to 0.0263696
Heightened Def Con from 0.0263696 to 0.0263696
Heightened Def Con from 0.0263696 to 0.0263696
Heightened Def Con from 0.0263696 to 0.0263696
Heightened Def Con from 0.0263696 to 0.0263696

Date: Sun Apr 21 21:31:29 2024
Total elapsed time: 18.441 seconds.

tnom = 27
temp = 27
method = modified trap
totiter = 17237558
traniter = 17237551
tranpoints = 1955829
accept = 824049
rejected = 1236893
matrix size = 6
fillins = 2
solver = Normal
Matrix Compiler1:      23 opcodes  0.1/[0.1]/0.1
Matrix Compiler2: 564 bytes object code size  0.1/0.1/[0.1]

