Circuit: * Z:\home\nanik\Documents\analogBirdSAO\simulation.asc

Direct Newton iteration failed to find .op point.  (Use ".option noopiter" to skip.)
Starting Gmin stepping
Gmin = 10
Gmin = 1.07374
Gmin = 0.115292
Gmin = 0.0123794
vernier = 0.5
Gmin = 0.0025641
vernier = 0.666667
vernier = 0.888888
Gmin = 0.000584314
vernier = 1
Gmin = 7.02013e-005
Gmin = 7.53781e-006
Gmin = 8.09366e-007
Gmin = 8.6905e-008
Gmin = 9.33136e-009
Gmin = 1.00195e-009
Gmin = 1.07583e-010
Gmin = 1.15517e-011
Gmin = 1.24035e-012
Gmin = 1.33182e-013
Gmin = 0
Gmin stepping succeeded in finding the operating point.

Heightened Def Con from 0.00218763 to 0.00218763
Heightened Def Con from 0.00218763 to 0.00218763
Heightened Def Con from 0.00218763 to 0.00218763
Heightened Def Con from 0.00218763 to 0.00218763
Heightened Def Con from 0.00218763 to 0.00218763
Heightened Def Con from 0.00218763 to 0.00218763
Heightened Def Con from 0.00218763 to 0.00218763
Heightened Def Con from 0.00218763 to 0.00218763
Heightened Def Con from 0.00218763 to 0.00218763
Heightened Def Con from 0.00218763 to 0.00218763
Heightened Def Con from 0.00218763 to 0.00218763
Heightened Def Con from 0.00218763 to 0.00218763
Heightened Def Con from 0.00218763 to 0.00218763
Heightened Def Con from 0.00218763 to 0.00218763
Heightened Def Con from 0.00218763 to 0.00218763
Heightened Def Con from 0.00218763 to 0.00218763
Heightened Def Con from 0.00218763 to 0.00218763
Heightened Def Con from 0.00218763 to 0.00218763
Heightened Def Con from 0.00218763 to 0.00218763
Heightened Def Con from 0.00218763 to 0.00218763
Heightened Def Con from 0.00218763 to 0.00218763
Heightened Def Con from 0.00218763 to 0.00218763
Heightened Def Con from 0.00218763 to 0.00218763
Heightened Def Con from 0.00218763 to 0.00218763
Heightened Def Con from 0.00218763 to 0.00218763
Heightened Def Con from 0.00218763 to 0.00218763
Heightened Def Con from 0.00218763 to 0.00218763
Heightened Def Con from 0.00218763 to 0.00218763
Heightened Def Con from 0.00218763 to 0.00218763
Heightened Def Con from 0.00218763 to 0.00218763
Heightened Def Con from 0.00218763 to 0.00218763
Heightened Def Con from 0.00218763 to 0.00218763
Heightened Def Con from 0.00218763 to 0.00218763
Heightened Def Con from 0.00218763 to 0.00218763
Heightened Def Con from 0.00218763 to 0.00218763
Heightened Def Con from 0.00218763 to 0.00218763
Heightened Def Con from 0.00218763 to 0.00218763
Heightened Def Con from 0.00218763 to 0.00218763
Heightened Def Con from 0.00218763 to 0.00218763
Heightened Def Con from 0.00218763 to 0.00218763
Heightened Def Con from 0.00218763 to 0.00218763
Heightened Def Con from 0.00218763 to 0.00218763
Heightened Def Con from 0.00218763 to 0.00218763
Heightened Def Con from 0.00218763 to 0.00218763
Heightened Def Con from 0.00218763 to 0.00218763
Heightened Def Con from 0.00218763 to 0.00218763
Heightened Def Con from 0.00218763 to 0.00218763
Heightened Def Con from 0.00218763 to 0.00218763
Heightened Def Con from 0.00218763 to 0.00218763
Heightened Def Con from 0.00218763 to 0.00218763
Heightened Def Con from 0.00218763 to 0.00218763
Heightened Def Con from 0.00218763 to 0.00218763
Heightened Def Con from 0.00218763 to 0.00218763
Heightened Def Con from 0.00218763 to 0.00218763
Heightened Def Con from 0.00218763 to 0.00218763
Heightened Def Con from 0.00218763 to 0.00218763
Heightened Def Con from 0.00218763 to 0.00218763
Heightened Def Con from 0.00218763 to 0.00218763
Heightened Def Con from 0.00218763 to 0.00218763
Heightened Def Con from 0.00218763 to 0.00218763
Heightened Def Con from 0.00218763 to 0.00218763
Heightened Def Con from 0.00218763 to 0.00218763
Heightened Def Con from 0.00218763 to 0.00218763
Heightened Def Con from 0.00218763 to 0.00218763
Heightened Def Con from 0.00218763 to 0.00218763
Heightened Def Con from 0.00218763 to 0.00218763
Heightened Def Con from 0.00218763 to 0.00218763
Heightened Def Con from 0.00218763 to 0.00218763
Heightened Def Con from 0.00218763 to 0.00218763
Heightened Def Con from 0.00218763 to 0.00218763
Heightened Def Con from 0.00218763 to 0.00218763
Heightened Def Con from 0.00218763 to 0.00218763
Heightened Def Con from 0.00218763 to 0.00218763
Heightened Def Con from 0.00218763 to 0.00218763
Heightened Def Con from 0.00218763 +to 0.00218763
Heightened Def Con from 0.00218763 to 0.00218763
Heightened Def Con from 0.00218763 to 0.00218763
Heightened Def Con from 0.00218763 to 0.00218763
Heightened Def Con from 0.00218763 to 0.00218763
Heightened Def Con from 0.00218763 to 0.00218763
Heightened Def Con from 0.00218763 to 0.00218763
Heightened Def Con from 0.00218763 to 0.00218763
Heightened Def Con from 0.00218763 to 0.00218763
Heightened Def Con from 0.00218763 to 0.00218763
Heightened Def Con from 0.00248065 to 0.00248065
Heightened Def Con from 0.00248065 to 0.00248065
Heightened Def Con from 0.00248065 to 0.00248065
Heightened Def Con from 0.00248065 to 0.00248065
Heightened Def Con from 0.00248065 to 0.00248065
Heightened Def Con from 0.00248065 to 0.00248065
Heightened Def Con from 0.00248065 to 0.00248065
Heightened Def Con from 0.00248065 to 0.00248065
Heightened Def Con from 0.00248065 to 0.00248065
Heightened Def Con from 0.00248065 to 0.00248065
Heightened Def Con from 0.00248065 to 0.00248065
Heightened Def Con from 0.00248065 to 0.00248065
Heightened Def Con from 0.00248065 to 0.00248065
Heightened Def Con from 0.00248065 to 0.00248065
Heightened Def Con from 0.00248065 to 0.00248065
Heightened Def Con from 0.00248065 to 0.00248065
Heightened Def Con from 0.00248065 to 0.00248065
Heightened Def Con from 0.00248065 to 0.00248065
Heightened Def Con from 0.00248065 to 0.00248065
Heightened Def Con from 0.00248065 to 0.00248065
Heightened Def Con from 0.00248065 to 0.00248065
Heightened Def Con from 0.00248065 to 0.00248065
Heightened Def Con from 0.00248065 to 0.00248065
Heightened Def Con from 0.00248065 to 0.00248065
Heightened Def Con from 0.00248065 to 0.00248065
Heightened Def Con from 0.00248065 to 0.00248065
Heightened Def Con from 0.00248065 to 0.00248065
Heightened Def Con from 0.00248065 to 0.00248065
Heightened Def Con from 0.00248065 to 0.00248065
Heightened Def Con from 0.00248065 to 0.00248065
Heightened Def Con from 0.00248065 to 0.00248065
Heightened Def Con from 0.00248065 to 0.00248065
Heightened Def Con from 0.00248065 to 0.00248065
Heightened Def Con from 0.00248065 to 0.00248065
Heightened Def Con from 0.00248065 to 0.00248065
Heightened Def Con from 0.00248065 to 0.00248065
Heightened Def Con from 0.00248065 to 0.00248065
Heightened Def Con from 0.00248065 to 0.00248065
Heightened Def Con from 0.00248065 to 0.00248065
Heightened Def Con from 0.00248065 to 0.00248065
Heightened Def Con from 0.00248065 to 0.00248065
Heightened Def Con from 0.00248065 to 0.00248065
Heightened Def Con from 0.00248065 to 0.00248065
Heightened Def Con from 0.00248065 to 0.00248065
Heightened Def Con from 0.00248065 to 0.00248065
Heightened Def Con from 0.00248065 to 0.00248065
Heightened Def Con from 0.00248065 to 0.00248065
Heightened Def Con from 0.00248065 to 0.00248065
Heightened Def Con from 0.00248065 to 0.00248065
Heightened Def Con from 0.00248065 to 0.00248065
Heightened Def Con from 0.00248065 to 0.00248065
Heightened Def Con from 0.00248065 to 0.00248065
Heightened Def Con from 0.00248065 to 0.00248065
Heightened Def Con from 0.00248065 to 0.00248065
Heightened Def Con from 0.00248065 to 0.00248065
Heightened Def Con from 0.00248065 to 0.00248065
Heightened Def Con from 0.00248065 to 0.00248065
Heightened Def Con from 0.00248065 to 0.00248065
Heightened Def Con from 0.00248065 to 0.00248065
Heightened Def Con from 0.00248065 to 0.00248065
Heightened Def Con from 0.00248065 to 0.00248065
Heightened Def Con from 0.00248065 to 0.00248065
Heightened Def Con from 0.00248065 to 0.00248065
Heightened Def Con from 0.00248065 to 0.00248065
Heightened Def Con from 0.00248065 to 0.00248065
Heightened Def Con from 0.00248065 to 0.00248065
Heightened Def Con from 0.00248065 to 0.00248065
Heightened Def Con from 0.00248065 to 0.00248065
Heightened Def Con from 0.00248065 to 0.00248065
Heightened Def Con from 0.00248065 to 0.00248065
Heightened Def Con from 0.00248065 to 0.00248065
Heightened Def Con from 0.00248065 to 0.00248065
Heightened Def Con from 0.00248065 to 0.00248065
Heightened Def Con from 0.00248065 to 0.00248065
Heightened Def Con from 0.00248065 to 0.00248065
Heightened Def Con from 0.00248065 to 0.00248065
Heightened Def Con from 0.00248065 to 0.00248065
Heightened Def Con from 0.00248065 to 0.00248065
Heightened Def Con from 0.00248065 to 0.00248065
Heightened Def Con from 0.00248065 to 0.00248065
Heightened Def Con from 0.00248065 to 0.00248065
Heightened Def Con from 0.00248065 to 0.00248065
Heightened Def Con from 0.00248065 to 0.00248065
Heightened Def Con from 0.00248065 to 0.00248065
Heightened Def Con from 0.00248065 to 0.00248065
Heightened Def Con from 0.00248065 to 0.00248065
Heightened Def Con from 0.00248065 to 0.00248065
Heightened Def Con from 0.00248065 to 0.00248065
Heightened Def Con from 0.00248065 to 0.00248065
Heightened Def Con from 0.00248065 to 0.00248065
Heightened Def Con from 0.00248065 to 0.00248065
Heightened Def Con from 0.00248065 to 0.00248065
Heightened Def Con from 0.00248065 to 0.00248065
Heightened Def Con from 0.00248065 to 0.00248065
Heightened Def Con from 0.00248065 to 0.00248065
Heightened Def Con from 0.00248065 to 0.00248065
Heightened Def Con from 0.00248065 to 0.00248065
Heightened Def Con from 0.00248065 to 0.00248065
Heightened Def Con from 0.00248065 to 0.00248065
Heightened Def Con from 0.00248065 to 0.00248065
Heightened Def Con from 0.00248065 to 0.00248065
Heightened Def Con from 0.00248065 to 0.00248065
Heightened Def Con from 0.00248065 to 0.00248065
Heightened Def Con from 0.00248065 to 0.00248065
Heightened Def Con from 0.00248065 to 0.00248065
Heightened Def Con from 0.00248065 to 0.00248065
Heightened Def Con from 0.00248065 to 0.00248065
Heightened Def Con from 0.00248065 to 0.00248065
Heightened Def Con from 0.00248065 to 0.00248065
Heightened Def Con from 0.00248065 to 0.00248065
Heightened Def Con from 0.00248065 to 0.00248065
Heightened Def Con from 0.00248065 to 0.00248065
Heightened Def Con from 0.00248065 to 0.00248065
Heightened Def Con from 0.00248065 to 0.00248065
Heightened Def Con from 0.00248065 to 0.00248065
Heightened Def Con from 0.00248065 to 0.00248065
Heightened Def Con from 0.00248065 to 0.00248065
Heightened Def Con from 0.00248065 to 0.00248065
Heightened Def Con from 0.00248065 to 0.00248065
Heightened Def Con from 0.00248065 to 0.00248065
Heightened Def Con from 0.00248065 to 0.00248065
Heightened Def Con from 0.00248065 to 0.00248065
Heightened Def Con from 0.00248065 to 0.00248065
Heightened Def Con from 0.00248065 to 0.00248065
Heightened Def Con from 0.00248065 to 0.00248065
Heightened Def Con from 0.00248065 to 0.00248065
Heightened Def Con from 0.00248065 to 0.00248065
Heightened Def Con from 0.00248065 to 0.00248065
Heightened Def Con from 0.00248065 to 0.00248065
Heightened Def Con from 0.00248065 to 0.00248065
Heightened Def Con from 0.00248065 to 0.00248065
Heightened Def Con from 0.00248065 to 0.00248065
Heightened Def Con from 0.00248065 to 0.00248065
Heightened Def Con from 0.00248065 to 0.00248065
Heightened Def Con from 0.00248065 to 0.00248065
Heightened Def Con from 0.00248065 to 0.00248065
Heightened Def Con from 0.00248065 to 0.00248065
Heightened Def Con from 0.00248065 to 0.00248065
Heightened Def Con from 0.00248065 to 0.00248065
Heightened Def Con from 0.00248065 to 0.00248065
Heightened Def Con from 0.00248065 to 0.00248065
Heightened Def Con from 0.00248065 to 0.00248065
Heightened Def Con from 0.00248065 to 0.00248065
Heightened Def Con from 0.00248065 to 0.00248065
Heightened Def Con from 0.00248065 to 0.00248065
Heightened Def Con from 0.00248065 to 0.00248065
Heightened Def Con from 0.00248065 to 0.00248065
Heightened Def Con from 0.00248065 to 0.00248065
Heightened Def Con from 0.00248065 to 0.00248065
Heightened Def Con from 0.00248065 to 0.00248065
Heightened Def Con from 0.00248065 to 0.00248065
Heightened Def Con from 0.00248065 to 0.00248065
Heightened Def Con from 0.00248065 to 0.00248065
Heightened Def Con from 0.00248065 to 0.00248065
Heightened Def Con from 0.00248065 to 0.00248065
Heightened Def Con from 0.00248065 to 0.00248065
Heightened Def Con from 0.00248065 to 0.00248065
Heightened Def Con from 0.00248065 to 0.00248065
Heightened Def Con from 0.00248065 to 0.00248065
Heightened Def Con from 0.00248065 to 0.00248065
Heightened Def Con from 0.00248065 to 0.00248065
Heightened Def Con from 0.00248065 to 0.00248065
Heightened Def Con from 0.00248065 to 0.00248065
Heightened Def Con from 0.00248065 +to 0.00248065
Heightened Def Con from 0.00248065 to 0.00248065
Heightened Def Con from 0.00248065 to 0.00248065
Heightened Def Con from 0.00248065 to 0.00248065
Heightened Def Con from 0.00248065 to 0.00248065
Heightened Def Con from 0.00248065 to 0.00248065
Heightened Def Con from 0.00248065 to 0.00248065
Heightened Def Con from 0.00248065 to 0.00248065
Heightened Def Con from 0.00248065 to 0.00248065
Heightened Def Con from 0.00248065 to 0.00248065
Heightened Def Con from 0.00248065 to 0.00248065
Heightened Def Con from 0.00248065 to 0.00248065
Heightened Def Con from 0.00248065 to 0.00248065
Heightened Def Con from 0.00248065 to 0.00248065
Heightened Def Con from 0.00248065 to 0.00248065
Heightened Def Con from 0.00248065 to 0.00248065
Heightened Def Con from 0.00248065 to 0.00248065
Heightened Def Con from 0.00248065 to 0.00248065
Heightened Def Con from 0.00248065 to 0.00248065
Heightened Def Con from 0.00248065 to 0.00248065
Heightened Def Con from 0.00248065 to 0.00248065
Heightened Def Con from 0.00248065 to 0.00248065
Heightened Def Con from 0.00248065 to 0.00248065
Heightened Def Con from 0.00248065 to 0.00248065
Heightened Def Con from 0.00248065 to 0.00248065
Heightened Def Con from 0.00248065 to 0.00248065
Heightened Def Con from 0.00248065 to 0.00248065
Heightened Def Con from 0.00248065 to 0.00248065
Heightened Def Con from 0.00248065 to 0.00248065
Heightened Def Con from 0.00248065 to 0.00248065
Heightened Def Con from 0.00248065 to 0.00248065
Heightened Def Con from 0.00248065 to 0.00248065
Heightened Def Con from 0.00248065 to 0.00248065
Heightened Def Con from 0.00248065 to 0.00248065
Heightened Def Con from 0.00248065 to 0.00248065
Heightened Def Con from 0.00248065 to 0.00248065
Heightened Def Con from 0.00248065 to 0.00248065
Heightened Def Con from 0.00248065 to 0.00248065
Heightened Def Con from 0.00248065 to 0.00248065
Heightened Def Con from 0.00248065 to 0.00248065
Heightened Def Con from 0.00248065 to 0.00248065
Heightened Def Con from 0.00248065 to 0.00248065
Heightened Def Con from 0.00248065 to 0.00248065
Heightened Def Con from 0.00248065 to 0.00248065
Heightened Def Con from 0.00248065 +to 0.00248065
Heightened Def Con from 0.00248065 to 0.00248065
Heightened Def Con from 0.00248065 to 0.00248065
Heightened Def Con from 0.00248065 to 0.00248065
Heightened Def Con from 0.00248065 to 0.00248065
Heightened Def Con from 0.00248065 to 0.00248065
Heightened Def Con from 0.00248065 to 0.00248065
Heightened Def Con from 0.00248065 to 0.00248065
Heightened Def Con from 0.00248065 +to 0.00248065
Heightened Def Con from 0.00248065 to 0.00248065
Heightened Def Con from 0.00248065 to 0.00248065
Heightened Def Con from 0.00248065 to 0.00248065
Heightened Def Con from 0.00248065 to 0.00248065
Heightened Def Con from 0.00248065 to 0.00248065
Heightened Def Con from 0.00248065 to 0.00248065
Heightened Def Con from 0.00248065 to 0.00248065
Heightened Def Con from 0.00248065 to 0.00248065
Heightened Def Con from 0.00248065 to 0.00248065
Heightened Def Con from 0.00248065 to 0.00248065
Heightened Def Con from 0.00248065 to 0.00248065
Heightened Def Con from 0.00248065 to 0.00248065
Heightened Def Con from 0.00248065 to 0.00248065
Heightened Def Con from 0.00248065 to 0.00248065
Heightened Def Con from 0.00248065 to 0.00248065
Heightened Def Con from 0.00248065 to 0.00248065
Heightened Def Con from 0.00248065 to 0.00248065
Heightened Def Con from 0.00248065 to 0.00248065
Heightened Def Con from 0.00248065 to 0.00248065
Heightened Def Con from 0.00248065 to 0.00248065
Heightened Def Con from 0.00248065 to 0.00248065
Heightened Def Con from 0.00248065 to 0.00248065
Heightened Def Con from 0.00248065 to 0.00248065
Heightened Def Con from 0.00248065 to 0.00248065
Heightened Def Con from 0.00248065 to 0.00248065
Heightened Def Con from 0.00248065 to 0.00248065
Heightened Def Con from 0.00248065 to 0.00248065
Heightened Def Con from 0.00248065 to 0.00248065
Heightened Def Con from 0.00248065 to 0.00248065
Heightened Def Con from 0.00248065 to 0.00248065
Heightened Def Con from 0.00248065 to 0.00248065
Heightened Def Con from 0.00248065 to 0.00248065
Heightened Def Con from 0.00248065 to 0.00248065
Heightened Def Con from 0.00248065 to 0.00248065
Heightened Def Con from 0.00248065 to 0.00248065
Heightened Def Con from 0.00248065 to 0.00248065
Heightened Def Con from 0.00248065 to 0.00248065
Heightened Def Con from 0.00248065 to 0.00248065
Heightened Def Con from 0.00248065 to 0.00248065
Heightened Def Con from 0.00248065 to 0.00248065
Heightened Def Con from 0.00248065 to 0.00248065
Heightened Def Con from 0.00248065 to 0.00248065
Heightened Def Con from 0.00248065 +to 0.00248065
Heightened Def Con from 0.00248065 to 0.00248065
Heightened Def Con from 0.00248065 to 0.00248065
Heightened Def Con from 0.00248065 to 0.00248065
Heightened Def Con from 0.00248065 to 0.00248065
Heightened Def Con from 0.00248065 to 0.00248065
Heightened Def Con from 0.00248065 to 0.00248065
Heightened Def Con from 0.00248065 to 0.00248065
Heightened Def Con from 0.00248065 to 0.00248065
Heightened Def Con from 0.00248065 to 0.00248065
Heightened Def Con from 0.00248065 to 0.00248065
Heightened Def Con from 0.00248065 to 0.00248065
Heightened Def Con from 0.00248065 to 0.00248065
Heightened Def Con from 0.00248065 to 0.00248065
Heightened Def Con from 0.00248065 to 0.00248065
Heightened Def Con from 0.00248065 to 0.00248065
Heightened Def Con from 0.00248065 to 0.00248065
Heightened Def Con from 0.00248065 to 0.00248065
Heightened Def Con from 0.00248065 to 0.00248065
Heightened Def Con from 0.00248065 to 0.00248065
Heightened Def Con from 0.00248065 to 0.00248065
Heightened Def Con from 0.00248065 to 0.00248065
Heightened Def Con from 0.00248065 to 0.00248065
Heightened Def Con from 0.00248065 to 0.00248065
Heightened Def Con from 0.00248065 to 0.00248065
Heightened Def Con from 0.00248065 to 0.00248065
Heightened Def Con from 0.00248065 to 0.00248065
Heightened Def Con from 0.00248065 to 0.00248065
Heightened Def Con from 0.00248065 to 0.00248065
Heightened Def Con from 0.00248065 to 0.00248065
Heightened Def Con from 0.00248065 to 0.00248065
Heightened Def Con from 0.00248065 to 0.00248065
Heightened Def Con from 0.00248065 to 0.00248065
Heightened Def Con from 0.00248065 to 0.00248065
Heightened Def Con from 0.00248065 to 0.00248065
Heightened Def Con from 0.00248065 to 0.00248065
Heightened Def Con from 0.00248065 to 0.00248065
Heightened Def Con from 0.00248065 to 0.00248065
Heightened Def Con from 0.00248065 to 0.00248065
Heightened Def Con from 0.00248065 to 0.00248065
Heightened Def Con from 0.00248065 to 0.00248065
Heightened Def Con from 0.00248065 to 0.00248065
Heightened Def Con from 0.00248065 to 0.00248065
Heightened Def Con from 0.00248065 to 0.00248065
Heightened Def Con from 0.00248065 to 0.00248065
Heightened Def Con from 0.00248065 +to 0.00248065
Heightened Def Con from 0.00248065 to 0.00248065
Heightened Def Con from 0.00248065 to 0.00248065
Heightened Def Con from 0.00248065 to 0.00248065
Heightened Def Con from 0.00248065 to 0.00248065
Heightened Def Con from 0.00248065 to 0.00248065
Heightened Def Con from 0.00248065 to 0.00248065
Heightened Def Con from 0.00248065 to 0.00248065
Heightened Def Con from 0.00248065 +to 0.00248065
Heightened Def Con from 0.00248065 to 0.00248065
Heightened Def Con from 0.00248065 to 0.00248065
Heightened Def Con from 0.00248065 to 0.00248065
Heightened Def Con from 0.00248065 to 0.00248065
Heightened Def Con from 0.00248065 to 0.00248065
Heightened Def Con from 0.00248065 to 0.00248065
Heightened Def Con from 0.00248065 to 0.00248065
Heightened Def Con from 0.00248065 +to 0.00248065
Heightened Def Con from 0.00248065 to 0.00248065
Heightened Def Con from 0.00248065 to 0.00248065
Heightened Def Con from 0.00248065 to 0.00248065
Heightened Def Con from 0.00248065 +to 0.00248065
Heightened Def Con from 0.00248065 to 0.00248065
Heightened Def Con from 0.00248065 to 0.00248065
Heightened Def Con from 0.00248065 to 0.00248065
Heightened Def Con from 0.00248065 +to 0.00248065
Heightened Def Con from 0.00248065 to 0.00248065
Heightened Def Con from 0.00248065 to 0.00248065
Heightened Def Con from 0.00248065 to 0.00248065
Heightened Def Con from 0.00248065 to 0.00248065
Heightened Def Con from 0.00248065 to 0.00248065
Heightened Def Con from 0.00248065 +to 0.00248065
Heightened Def Con from 0.00248065 to 0.00248065
Heightened Def Con from 0.00248065 +to 0.00248065
Heightened Def Con from 0.00248065 to 0.00248065
Heightened Def Con from 0.00248065 to 0.00248065
Heightened Def Con from 0.00248065 to 0.00248065
Heightened Def Con from 0.00248065 to 0.00248065
Heightened Def Con from 0.00248065 to 0.00248065
Heightened Def Con from 0.00248065 +to 0.00248065
Heightened Def Con from 0.00248065 to 0.00248065
Heightened Def Con from 0.00248065 to 0.00248065
Heightened Def Con from 0.00248065 to 0.00248065
Heightened Def Con from 0.00248065 to 0.00248065
Heightened Def Con from 0.00248065 to 0.00248065
Heightened Def Con from 0.00248065 to 0.00248065
Heightened Def Con from 0.00248065 to 0.00248065
Heightened Def Con from 0.00248065 to 0.00248065
Heightened Def Con from 0.00248065 to 0.00248065
Heightened Def Con from 0.00248065 to 0.00248065
Heightened Def Con from 0.00248065 to 0.00248065
Heightened Def Con from 0.00248065 to 0.00248065
Heightened Def Con from 0.00248065 to 0.00248065
Heightened Def Con from 0.00248065 to 0.00248065
Heightened Def Con from 0.00248065 to 0.00248065
Heightened Def Con from 0.00248065 to 0.00248065
Heightened Def Con from 0.00248065 to 0.00248065
Heightened Def Con from 0.00248065 to 0.00248065
Heightened Def Con from 0.00248065 to 0.00248065
Heightened Def Con from 0.00248065 to 0.00248065
Heightened Def Con from 0.00248065 to 0.00248065
Heightened Def Con from 0.00248065 to 0.00248065
Heightened Def Con from 0.00248065 to 0.00248065
Heightened Def Con from 0.00248065 to 0.00248065
Heightened Def Con from 0.00248065 to 0.00248065
Heightened Def Con from 0.00248065 to 0.00248065
Heightened Def Con from 0.00248065 to 0.00248065
Heightened Def Con from 0.00248065 to 0.00248065
Heightened Def Con from 0.00248065 to 0.00248065
Heightened Def Con from 0.00248065 to 0.00248065
Heightened Def Con from 0.00248065 to 0.00248065
Heightened Def Con from 0.00248065 to 0.00248065
Heightened Def Con from 0.00248065 to 0.00248065
Heightened Def Con from 0.00248065 to 0.00248065
Heightened Def Con from 0.00248065 to 0.00248065
Heightened Def Con from 0.00248065 to 0.00248065
Heightened Def Con from 0.00248065 to 0.00248065
Heightened Def Con from 0.00248065 to 0.00248065
Heightened Def Con from 0.00248065 to 0.00248065
Heightened Def Con from 0.00248065 to 0.00248065
Heightened Def Con from 0.00248065 to 0.00248065
Heightened Def Con from 0.00248065 to 0.00248065
Heightened Def Con from 0.00248065 to 0.00248065
Heightened Def Con from 0.00248065 to 0.00248065
Heightened Def Con from 0.00248065 to 0.00248065
Heightened Def Con from 0.00248065 to 0.00248065
Heightened Def Con from 0.00248065 to 0.00248065
Heightened Def Con from 0.00248065 to 0.00248065
Heightened Def Con from 0.00248065 to 0.00248065
Heightened Def Con from 0.00248065 +to 0.00248065
Heightened Def Con from 0.00248065 to 0.00248065
Heightened Def Con from 0.00248065 to 0.00248065
Heightened Def Con from 0.00248065 to 0.00248065
Heightened Def Con from 0.00248065 to 0.00248065
Heightened Def Con from 0.00248065 to 0.00248065
Heightened Def Con from 0.00248065 to 0.00248065
Heightened Def Con from 0.00248065 to 0.00248065
Heightened Def Con from 0.00248065 to 0.00248065
Heightened Def Con from 0.00248065 to 0.00248065
Heightened Def Con from 0.00248065 to 0.00248065
Heightened Def Con from 0.00248065 to 0.00248065
Heightened Def Con from 0.00248065 to 0.00248065
Heightened Def Con from 0.00248065 to 0.00248065
Heightened Def Con from 0.00248065 to 0.00248065
Heightened Def Con from 0.00248065 to 0.00248065
Heightened Def Con from 0.00248065 to 0.00248065
Heightened Def Con from 0.00248065 to 0.00248065
Heightened Def Con from 0.00248065 to 0.00248065
Heightened Def Con from 0.00248065 to 0.00248065
Heightened Def Con from 0.00248065 to 0.00248065
Heightened Def Con from 0.00248065 to 0.00248065
Heightened Def Con from 0.00248065 to 0.00248065
Heightened Def Con from 0.00248065 to 0.00248065
Heightened Def Con from 0.00248065 to 0.00248065
Heightened Def Con from 0.00248065 to 0.00248065
Heightened Def Con from 0.00248065 to 0.00248065
Heightened Def Con from 0.00248065 to 0.00248065
Heightened Def Con from 0.00248065 to 0.00248065
Heightened Def Con from 0.00248065 to 0.00248065
Heightened Def Con from 0.00248065 to 0.00248065
Heightened Def Con from 0.00248065 to 0.00248065
Heightened Def Con from 0.00248065 to 0.00248065
Heightened Def Con from 0.00248065 to 0.00248065
Heightened Def Con from 0.00248065 to 0.00248065
Heightened Def Con from 0.00248065 to 0.00248065
Heightened Def Con from 0.00248065 to 0.00248065
Heightened Def Con from 0.00248065 to 0.00248065
Heightened Def Con from 0.00248065 to 0.00248065
Heightened Def Con from 0.00248065 to 0.00248065
Heightened Def Con from 0.00248065 to 0.00248065
Heightened Def Con from 0.00248065 to 0.00248065
Heightened Def Con from 0.00248065 to 0.00248065
Heightened Def Con from 0.00248065 to 0.00248065
Heightened Def Con from 0.00248065 to 0.00248065
Heightened Def Con from 0.00248065 to 0.00248065
Heightened Def Con from 0.00248065 to 0.00248065
Heightened Def Con from 0.00248065 to 0.00248065
Heightened Def Con from 0.00248065 to 0.00248065
Heightened Def Con from 0.00248065 to 0.00248065
Heightened Def Con from 0.00248065 to 0.00248065
Heightened Def Con from 0.00248065 to 0.00248065
Heightened Def Con from 0.00248065 to 0.00248065
Heightened Def Con from 0.00248065 to 0.00248065
Heightened Def Con from 0.00248065 to 0.00248065
Heightened Def Con from 0.00248065 to 0.00248065
Heightened Def Con from 0.00248065 to 0.00248065
Heightened Def Con from 0.00248065 to 0.00248065
Heightened Def Con from 0.00248065 to 0.00248065
Heightened Def Con from 0.00248065 to 0.00248065
Heightened Def Con from 0.00248065 to 0.00248065
Heightened Def Con from 0.00248065 to 0.00248065
Heightened Def Con from 0.00248065 to 0.00248065
Heightened Def Con from 0.00248065 to 0.00248065
Heightened Def Con from 0.00248065 +to 0.00248065
Heightened Def Con from 0.00248065 to 0.00248065
Heightened Def Con from 0.00248065 to 0.00248065
Heightened Def Con from 0.00248065 to 0.00248065
Heightened Def Con from 0.00248065 to 0.00248065
Heightened Def Con from 0.00248065 to 0.00248065
Heightened Def Con from 0.00248065 to 0.00248065
Heightened Def Con from 0.00248065 to 0.00248065
Heightened Def Con from 0.00248065 +to 0.00248065
Heightened Def Con from 0.00248065 to 0.00248065
Heightened Def Con from 0.00248065 to 0.00248065
Heightened Def Con from 0.00248065 to 0.00248065
Heightened Def Con from 0.00248065 to 0.00248065
Heightened Def Con from 0.00248065 to 0.00248065
Heightened Def Con from 0.00248065 to 0.00248065
Heightened Def Con from 0.00248065 to 0.00248065
Heightened Def Con from 0.00248065 to 0.00248065
Heightened Def Con from 0.00248065 to 0.00248065
Heightened Def Con from 0.00248065 to 0.00248065
Heightened Def Con from 0.00248065 to 0.00248065
Heightened Def Con from 0.00248065 to 0.00248065
Heightened Def Con from 0.00248065 to 0.00248065
Heightened Def Con from 0.00248065 to 0.00248065
Heightened Def Con from 0.00248065 to 0.00248065
Heightened Def Con from 0.00248065 to 0.00248065
Heightened Def Con from 0.00248065 to 0.00248065
Heightened Def Con from 0.00248065 to 0.00248065
Heightened Def Con from 0.00248065 to 0.00248065
Heightened Def Con from 0.00248065 to 0.00248065
Heightened Def Con from 0.00248065 to 0.00248065
Heightened Def Con from 0.00248065 to 0.00248065
Heightened Def Con from 0.00248065 to 0.00248065
Heightened Def Con from 0.00248065 +to 0.00248065
Heightened Def Con from 0.00248065 to 0.00248065
Heightened Def Con from 0.00248065 to 0.00248065
Heightened Def Con from 0.00248065 to 0.00248065
Heightened Def Con from 0.00248065 to 0.00248065
Heightened Def Con from 0.00248065 to 0.00248065
Heightened Def Con from 0.00248065 to 0.00248065
Heightened Def Con from 0.00248065 to 0.00248065
Heightened Def Con from 0.00248065 to 0.00248065
Heightened Def Con from 0.00248065 to 0.00248065
Heightened Def Con from 0.00248065 to 0.00248065
Heightened Def Con from 0.00248065 to 0.00248065
Heightened Def Con from 0.00248065 to 0.00248065
Heightened Def Con from 0.00248065 to 0.00248065
Heightened Def Con from 0.00248065 to 0.00248065
Heightened Def Con from 0.00248065 to 0.00248065
Heightened Def Con from 0.00248065 to 0.00248065
Heightened Def Con from 0.00248065 to 0.00248065
Heightened Def Con from 0.00248065 to 0.00248065
Heightened Def Con from 0.00248065 to 0.00248065
Heightened Def Con from 0.00248065 to 0.00248065
Heightened Def Con from 0.00248065 to 0.00248065
Heightened Def Con from 0.00248065 +to 0.00248065
Heightened Def Con from 0.00248065 to 0.00248065
Heightened Def Con from 0.00248065 to 0.00248065
Heightened Def Con from 0.00248065 to 0.00248065
Heightened Def Con from 0.00248065 to 0.00248065
Heightened Def Con from 0.00248065 to 0.00248065
Heightened Def Con from 0.00248065 to 0.00248065
Heightened Def Con from 0.00248065 to 0.00248065
Heightened Def Con from 0.00248065 to 0.00248065
Heightened Def Con from 0.00248065 to 0.00248065
Heightened Def Con from 0.00248065 to 0.00248065
Heightened Def Con from 0.00248065 to 0.00248065
Heightened Def Con from 0.00248065 to 0.00248065
Heightened Def Con from 0.00248065 to 0.00248065
Heightened Def Con from 0.00248065 to 0.00248065
Heightened Def Con from 0.00248065 to 0.00248065
Heightened Def Con from 0.00248065 to 0.00248065
Heightened Def Con from 0.00248065 to 0.00248065
Heightened Def Con from 0.00248065 to 0.00248065
Heightened Def Con from 0.00248065 +to 0.00248065
Heightened Def Con from 0.00248065 +to 0.00248065
Heightened Def Con from 0.00248065 to 0.00248065
Heightened Def Con from 0.00248065 ++to 0.00248065
Heightened Def Con from 0.00248065 to 0.00248065
Heightened Def Con from 0.00248065 to 0.00248065
Heightened Def Con from 0.00248065 to 0.00248065
Heightened Def Con from 0.00248065 to 0.00248065
Heightened Def Con from 0.00248065 to 0.00248065
Heightened Def Con from 0.00248065 to 0.00248065
Heightened Def Con from 0.00248065 to 0.00248065
Heightened Def Con from 0.00248065 to 0.00248065
Heightened Def Con from 0.00248065 to 0.00248065
Heightened Def Con from 0.00248065 to 0.00248065
Heightened Def Con from 0.00248065 to 0.00248065
Heightened Def Con from 0.00248065 to 0.00248065
Heightened Def Con from 0.00248065 to 0.00248065
Heightened Def Con from 0.00248065 to 0.00248065
Heightened Def Con from 0.00248065 to 0.00248065
Heightened Def Con from 0.00248065 to 0.00248065
Heightened Def Con from 0.00248065 to 0.00248065
Heightened Def Con from 0.00248065 to 0.00248065
Heightened Def Con from 0.00248065 to 0.00248065
Heightened Def Con from 0.00248065 to 0.00248065
Heightened Def Con from 0.00248065 +to 0.00248065
Heightened Def Con from 0.00248065 to 0.00248065
Heightened Def Con from 0.00248065 to 0.00248065
Heightened Def Con from 0.00248065 to 0.00248065
Heightened Def Con from 0.00248065 to 0.00248065
Heightened Def Con from 0.00248065 to 0.00248065
Heightened Def Con from 0.00248065 to 0.00248065
Heightened Def Con from 0.00248065 to 0.00248065
Heightened Def Con from 0.00248065 to 0.00248065
Heightened Def Con from 0.00248065 to 0.00248065
Heightened Def Con from 0.00248065 to 0.00248065
Heightened Def Con from 0.00248065 to 0.00248065
Heightened Def Con from 0.00248065 to 0.00248065
Heightened Def Con from 0.00248065 to 0.00248065
Heightened Def Con from 0.00248065 to 0.00248065
Heightened Def Con from 0.00248065 +to 0.00248065
Heightened Def Con from 0.00248065 to 0.00248065
Heightened Def Con from 0.00248065 to 0.00248065
Heightened Def Con from 0.00248065 to 0.00248065
Heightened Def Con from 0.00248065 to 0.00248065
Heightened Def Con from 0.00248065 to 0.00248065
Heightened Def Con from 0.00248065 to 0.00248065
Heightened Def Con from 0.00248065 to 0.00248065
Heightened Def Con from 0.00248065 to 0.00248065
Heightened Def Con from 0.00248065 to 0.00248065
Heightened Def Con from 0.00248065 to 0.00248065
Heightened Def Con from 0.00248065 to 0.00248065
Heightened Def Con from 0.00248065 to 0.00248065
Heightened Def Con from 0.00248065 to 0.00248065
Heightened Def Con from 0.00248065 to 0.00248065
Heightened Def Con from 0.00248065 to 0.00248065
Heightened Def Con from 0.00248065 to 0.00248065
Heightened Def Con from 0.00248065 to 0.00248065
Heightened Def Con from 0.00248065 to 0.00248065
Heightened Def Con from 0.00248065 to 0.00248065
Heightened Def Con from 0.00248065 to 0.00248065
Heightened Def Con from 0.00248065 to 0.00248065
Heightened Def Con from 0.00248065 to 0.00248065
Heightened Def Con from 0.00248065 to 0.00248065
Heightened Def Con from 0.00248065 to 0.00248065
Heightened Def Con from 0.00248065 +to 0.00248065
Heightened Def Con from 0.00248065 to 0.00248065
Heightened Def Con from 0.00248065 to 0.00248065
Heightened Def Con from 0.00248065 to 0.00248065
Heightened Def Con from 0.00248065 to 0.00248065
Heightened Def Con from 0.00248065 to 0.00248065
Heightened Def Con from 0.00248065 to 0.00248065
Heightened Def Con from 0.00248065 to 0.00248065
Heightened Def Con from 0.00248065 to 0.00248065
Heightened Def Con from 0.00248065 to 0.00248065
Heightened Def Con from 0.00248065 to 0.00248065
Heightened Def Con from 0.00248065 to 0.00248065
Heightened Def Con from 0.00248065 to 0.00248065
Heightened Def Con from 0.00248065 to 0.00248065
Heightened Def Con from 0.00248065 to 0.00248065
Heightened Def Con from 0.00248065 to 0.00248065
Heightened Def Con from 0.00248065 to 0.00248065
Heightened Def Con from 0.00248065 to 0.00248065
Heightened Def Con from 0.00248065 to 0.00248065
Heightened Def Con from 0.00248065 +to 0.00248065
Heightened Def Con from 0.00248065 to 0.00248065
Heightened Def Con from 0.00248065 to 0.00248065
Heightened Def Con from 0.00248065 to 0.00248065
Heightened Def Con from 0.00248065 to 0.00248065
Heightened Def Con from 0.00248065 to 0.00248065
Heightened Def Con from 0.00248065 to 0.00248065
Heightened Def Con from 0.00248065 to 0.00248065
Heightened Def Con from 0.00248065 to 0.00248065
Heightened Def Con from 0.00248065 to 0.00248065
Heightened Def Con from 0.00248065 to 0.00248065
Heightened Def Con from 0.00248065 to 0.00248065
Heightened Def Con from 0.00248065 +to 0.00248065
Heightened Def Con from 0.00248065 to 0.00248065
Heightened Def Con from 0.00248065 to 0.00248065
Heightened Def Con from 0.00248065 to 0.00248065
Heightened Def Con from 0.00248065 to 0.00248065
Heightened Def Con from 0.00248065 +to 0.00248065
Heightened Def Con from 0.00248065 to 0.00248065
Heightened Def Con from 0.00248065 to 0.00248065
Heightened Def Con from 0.00248065 to 0.00248065
Heightened Def Con from 0.00248065 to 0.00248065
Heightened Def Con from 0.00248065 to 0.00248065
Heightened Def Con from 0.00248065 to 0.00248065
Heightened Def Con from 0.00248065 to 0.00248065
Heightened Def Con from 0.00248065 to 0.00248065
Heightened Def Con from 0.00248065 to 0.00248065
Heightened Def Con from 0.00248065 to 0.00248065
Heightened Def Con from 0.00248065 to 0.00248065
Heightened Def Con from 0.00248065 to 0.00248065
Heightened Def Con from 0.00248065 to 0.00248065
Heightened Def Con from 0.00248065 to 0.00248065
Heightened Def Con from 0.00248065 to 0.00248065
Heightened Def Con from 0.00248065 to 0.00248065
Heightened Def Con from 0.00248065 to 0.00248065
Heightened Def Con from 0.00248065 +to 0.00248065
Heightened Def Con from 0.00248065 to 0.00248065
Heightened Def Con from 0.00248065 to 0.00248065
Heightened Def Con from 0.00248065 to 0.00248065
Heightened Def Con from 0.00248065 to 0.00248065
Heightened Def Con from 0.00248065 ++to 0.00248065
Heightened Def Con from 0.00248065 to 0.00248065
Heightened Def Con from 0.00248065 to 0.00248065
Heightened Def Con from 0.00248065 to 0.00248065
Heightened Def Con from 0.00248065 to 0.00248065
Heightened Def Con from 0.00248065 to 0.00248065
Heightened Def Con from 0.00248065 to 0.00248065
Heightened Def Con from 0.00248065 +to 0.00248065
Heightened Def Con from 0.00248065 to 0.00248065
Heightened Def Con from 0.00248065 to 0.00248065
Heightened Def Con from 0.00248065 to 0.00248065
Heightened Def Con from 0.00248065 to 0.00248065
Heightened Def Con from 0.00248065 to 0.00248065
Heightened Def Con from 0.00248065 to 0.00248065
Heightened Def Con from 0.00248065 to 0.00248065
Heightened Def Con from 0.00248065 to 0.00248065
Heightened Def Con from 0.00248065 to 0.00248065
Heightened Def Con from 0.00248065 to 0.00248065
Heightened Def Con from 0.00248065 to 0.00248065
Heightened Def Con from 0.00248065 to 0.00248065
Heightened Def Con from 0.00248065 to 0.00248065
Heightened Def Con from 0.00248065 to 0.00248065
Heightened Def Con from 0.00248065 to 0.00248065
Heightened Def Con from 0.00248065 to 0.00248065
Heightened Def Con from 0.00248065 to 0.00248065
Heightened Def Con from 0.00248065 to 0.00248065
Heightened Def Con from 0.00248065 to 0.00248065
Heightened Def Con from 0.00248065 to 0.00248065
Heightened Def Con from 0.00248065 to 0.00248065
Heightened Def Con from 0.00248065 to 0.00248065
Heightened Def Con from 0.00248065 to 0.00248065
Heightened Def Con from 0.00248065 to 0.00248065
Heightened Def Con from 0.00248065 to 0.00248065
Heightened Def Con from 0.00248065 to 0.00248065
Heightened Def Con from 0.00248065 to 0.00248065
Heightened Def Con from 0.00248065 to 0.00248065
Heightened Def Con from 0.00248065 to 0.00248065
Heightened Def Con from 0.00248065 to 0.00248065
Heightened Def Con from 0.00248065 to 0.00248065
Heightened Def Con from 0.00248065 to 0.00248065
Heightened Def Con from 0.00248065 to 0.00248065
Heightened Def Con from 0.00248065 to 0.00248065
Heightened Def Con from 0.00248065 to 0.00248065
Heightened Def Con from 0.00248065 to 0.00248065
Heightened Def Con from 0.00248065 to 0.00248065
Heightened Def Con from 0.00248065 to 0.00248065
Heightened Def Con from 0.00248065 to 0.00248065
Heightened Def Con from 0.00248065 +to 0.00248065
Heightened Def Con from 0.00248065 ++to 0.00248065
Heightened Def Con from 0.00248065 to 0.00248065
Heightened Def Con from 0.00248065 to 0.00248065
Heightened Def Con from 0.00248065 to 0.00248065
Heightened Def Con from 0.00248065 to 0.00248065
Heightened Def Con from 0.00248065 to 0.00248065
Heightened Def Con from 0.00248065 to 0.00248065
Heightened Def Con from 0.00248065 to 0.00248065
Heightened Def Con from 0.00248065 to 0.00248065
Heightened Def Con from 0.00248065 to 0.00248065
Heightened Def Con from 0.00248065 to 0.00248065
Heightened Def Con from 0.00248065 to 0.00248065
Heightened Def Con from 0.00248065 to 0.00248065
Heightened Def Con from 0.00248065 to 0.00248065
Heightened Def Con from 0.00248065 to 0.00248065
Heightened Def Con from 0.00248065 to 0.00248065
Heightened Def Con from 0.00248065 to 0.00248065
Heightened Def Con from 0.00248065 to 0.00248065
Heightened Def Con from 0.00248065 to 0.00248065
Heightened Def Con from 0.00248065 to 0.00248065
Heightened Def Con from 0.00248065 to 0.00248065
Heightened Def Con from 0.00248065 to 0.00248065
Heightened Def Con from 0.00248065 to 0.00248065
Heightened Def Con from 0.00248065 to 0.00248065
Heightened Def Con from 0.00248065 to 0.00248065
Heightened Def Con from 0.00248065 to 0.00248065
Heightened Def Con from 0.00248065 to 0.00248065
Heightened Def Con from 0.00248065 to 0.00248065
Heightened Def Con from 0.00248065 to 0.00248065
Heightened Def Con from 0.00248065 to 0.00248065
Heightened Def Con from 0.00248065 to 0.00248065
Heightened Def Con from 0.00248065 +to 0.00248065
Heightened Def Con from 0.00248065 to 0.00248065
Heightened Def Con from 0.00248065 to 0.00248065
Heightened Def Con from 0.00248065 to 0.00248065
Heightened Def Con from 0.00248065 to 0.00248065
Heightened Def Con from 0.00248065 to 0.00248065
Heightened Def Con from 0.00248065 to 0.00248065
Heightened Def Con from 0.00248065 to 0.00248065
Heightened Def Con from 0.00248065 to 0.00248065
Heightened Def Con from 0.00248065 to 0.00248065
Heightened Def Con from 0.00248065 to 0.00248065
Heightened Def Con from 0.00248065 to 0.00248065
Heightened Def Con from 0.00248065 to 0.00248065
Heightened Def Con from 0.00248065 to 0.00248065
Heightened Def Con from 0.00248065 to 0.00248065
Heightened Def Con from 0.00248065 to 0.00248065
Heightened Def Con from 0.00248065 to 0.00248065
Heightened Def Con from 0.00248065 to 0.00248065
Heightened Def Con from 0.00248065 to 0.00248065
Heightened Def Con from 0.00248065 to 0.00248065
Heightened Def Con from 0.00248065 to 0.00248065
Heightened Def Con from 0.00248065 to 0.00248065
Heightened Def Con from 0.00248065 to 0.00248065
Heightened Def Con from 0.00248065 to 0.00248065
Heightened Def Con from 0.00248065 to 0.00248065
Heightened Def Con from 0.00248065 to 0.00248065
Heightened Def Con from 0.00248065 to 0.00248065
Heightened Def Con from 0.00248065 to 0.00248065
Heightened Def Con from 0.00248065 to 0.00248065
Heightened Def Con from 0.00248065 to 0.00248065
Heightened Def Con from 0.00248065 to 0.00248065
Heightened Def Con from 0.00248065 to 0.00248065
Heightened Def Con from 0.00248065 to 0.00248065
Heightened Def Con from 0.00248065 to 0.00248065
Heightened Def Con from 0.00248065 to 0.00248065
Heightened Def Con from 0.00248065 to 0.00248065
Heightened Def Con from 0.00248065 to 0.00248065
Heightened Def Con from 0.00248065 to 0.00248065
Heightened Def Con from 0.00248065 to 0.00248065
Heightened Def Con from 0.00248065 to 0.00248065
Heightened Def Con from 0.00248065 to 0.00248065
Heightened Def Con from 0.00248065 +to 0.00248065
Heightened Def Con from 0.00248065 to 0.00248065
Heightened Def Con from 0.00248065 to 0.00248065
Heightened Def Con from 0.00248065 to 0.00248065
Heightened Def Con from 0.00248065 to 0.00248065
Heightened Def Con from 0.00248065 to 0.00248065
Heightened Def Con from 0.00248065 to 0.00248065
Heightened Def Con from 0.00248065 to 0.00248065
Heightened Def Con from 0.00248065 to 0.00248065
Heightened Def Con from 0.00248065 to 0.00248065
Heightened Def Con from 0.00248065 to 0.00248065
Heightened Def Con from 0.00248065 to 0.00248065
Heightened Def Con from 0.00248065 to 0.00248065
Heightened Def Con from 0.00248065 to 0.00248065
Heightened Def Con from 0.00248065 to 0.00248065
Heightened Def Con from 0.00248065 to 0.00248065
Heightened Def Con from 0.00248065 to 0.00248065
Heightened Def Con from 0.00248065 to 0.00248065
Heightened Def Con from 0.00248065 to 0.00248065
Heightened Def Con from 0.00248065 to 0.00248065
Heightened Def Con from 0.00248065 +to 0.00248065
Heightened Def Con from 0.00248065 to 0.00248065
Heightened Def Con from 0.00248065 to 0.00248065
Heightened Def Con from 0.00248065 to 0.00248065
Heightened Def Con from 0.00248065 to 0.00248065
Heightened Def Con from 0.00248065 to 0.00248065
Heightened Def Con from 0.00248065 to 0.00248065
Heightened Def Con from 0.00248065 to 0.00248065
Heightened Def Con from 0.00248065 to 0.00248065
Heightened Def Con from 0.00248065 to 0.00248065
Heightened Def Con from 0.00248065 to 0.00248065
Heightened Def Con from 0.00248065 to 0.00248065
Heightened Def Con from 0.00248065 to 0.00248065
Heightened Def Con from 0.00248065 to 0.00248065
Heightened Def Con from 0.00248065 to 0.00248065
Heightened Def Con from 0.00248065 to 0.00248065
Heightened Def Con from 0.00248065 to 0.00248065
Heightened Def Con from 0.00248065 to 0.00248065
Heightened Def Con from 0.00248065 to 0.00248065
Heightened Def Con from 0.00248065 to 0.00248065
Heightened Def Con from 0.00248065 to 0.00248065
Heightened Def Con from 0.00248065 to 0.00248065
Heightened Def Con from 0.00248065 to 0.00248065
Heightened Def Con from 0.00248065 +to 0.00248065
Heightened Def Con from 0.00248065 to 0.00248065
Heightened Def Con from 0.00248065 to 0.00248065
Heightened Def Con from 0.00248065 to 0.00248065
Heightened Def Con from 0.00248065 to 0.00248065
Heightened Def Con from 0.00248065 to 0.00248065
Heightened Def Con from 0.00248065 to 0.00248065
Heightened Def Con from 0.00248065 to 0.00248065
Heightened Def Con from 0.00248065 to 0.00248065
Heightened Def Con from 0.00248065 to 0.00248065
Heightened Def Con from 0.00248065 to 0.00248065
Heightened Def Con from 0.00248065 to 0.00248065
Heightened Def Con from 0.00248065 to 0.00248065
Heightened Def Con from 0.00248065 to 0.00248065
Heightened Def Con from 0.00248065 to 0.00248065
Heightened Def Con from 0.00248065 to 0.00248065
Heightened Def Con from 0.00248065 to 0.00248065
Heightened Def Con from 0.00248065 to 0.00248065
Heightened Def Con from 0.00248065 to 0.00248065
Heightened Def Con from 0.00248065 to 0.00248065
Heightened Def Con from 0.00248065 to 0.00248065
Heightened Def Con from 0.00248065 to 0.00248065
Heightened Def Con from 0.00248065 to 0.00248065
Heightened Def Con from 0.00248065 to 0.00248065
Heightened Def Con from 0.00248065 to 0.00248065
Heightened Def Con from 0.00248065 to 0.00248065
Heightened Def Con from 0.00248065 to 0.00248065
Heightened Def Con from 0.00248065 to 0.00248065
Heightened Def Con from 0.00248065 to 0.00248065
Heightened Def Con from 0.00248065 to 0.00248065
Heightened Def Con from 0.00248065 to 0.00248065
Heightened Def Con from 0.00248065 ++to 0.00248065
Heightened Def Con from 0.00248065 to 0.00248065
Heightened Def Con from 0.00248065 to 0.00248065
Heightened Def Con from 0.00248065 to 0.00248065
Heightened Def Con from 0.00248065 to 0.00248065
Heightened Def Con from 0.00248065 to 0.00248065
Heightened Def Con from 0.00248065 to 0.00248065
Heightened Def Con from 0.00248065 to 0.00248065
Heightened Def Con from 0.00248065 to 0.00248065
Heightened Def Con from 0.00248065 to 0.00248065
Heightened Def Con from 0.00248065 to 0.00248065
Heightened Def Con from 0.00248065 to 0.00248065
Heightened Def Con from 0.00248065 to 0.00248065
Heightened Def Con from 0.00248065 to 0.00248065
Heightened Def Con from 0.00248065 to 0.00248065
Heightened Def Con from 0.00248065 to 0.00248065
Heightened Def Con from 0.00248065 to 0.00248065
Heightened Def Con from 0.00248065 to 0.00248065
Heightened Def Con from 0.00248065 +to 0.00248065
Heightened Def Con from 0.00248065 to 0.00248065
Heightened Def Con from 0.00248065 to 0.00248065
Heightened Def Con from 0.00248065 to 0.00248065
Heightened Def Con from 0.00248065 to 0.00248065
Heightened Def Con from 0.00248065 to 0.00248065
Heightened Def Con from 0.00248065 to 0.00248065
Heightened Def Con from 0.00248065 to 0.00248065
Heightened Def Con from 0.00248065 to 0.00248065
Heightened Def Con from 0.00248065 to 0.00248065
Heightened Def Con from 0.00248065 to 0.00248065
Heightened Def Con from 0.00248065 to 0.00248065
Heightened Def Con from 0.00248065 to 0.00248065
Heightened Def Con from 0.00248065 to 0.00248065
Heightened Def Con from 0.00248065 to 0.00248065
Heightened Def Con from 0.00248065 to 0.00248065
Heightened Def Con from 0.00248065 to 0.00248065
Heightened Def Con from 0.00248065 to 0.00248065
Heightened Def Con from 0.00248065 +to 0.00248065
Heightened Def Con from 0.00248065 to 0.00248065
Heightened Def Con from 0.00248065 to 0.00248065
Heightened Def Con from 0.00248065 to 0.00248065
Heightened Def Con from 0.00248065 to 0.00248065
Heightened Def Con from 0.00248065 to 0.00248065
Heightened Def Con from 0.00248065 to 0.00248065
Heightened Def Con from 0.00248065 to 0.00248065
Heightened Def Con from 0.00248065 to 0.00248065
Heightened Def Con from 0.00248065 +to 0.00248065
Heightened Def Con from 0.00248065 to 0.00248065
Heightened Def Con from 0.00248065 +to 0.00248065
Heightened Def Con from 0.00248065 to 0.00248065
Heightened Def Con from 0.00248065 to 0.00248065
Heightened Def Con from 0.00248065 to 0.00248065
Heightened Def Con from 0.00248065 to 0.00248065
Heightened Def Con from 0.00248065 to 0.00248065
Heightened Def Con from 0.00248065 to 0.00248065
Heightened Def Con from 0.00248065 to 0.00248065
Heightened Def Con from 0.00248065 to 0.00248065
Heightened Def Con from 0.00248065 to 0.00248065
Heightened Def Con from 0.00248065 to 0.00248065
Heightened Def Con from 0.00248065 +to 0.00248065
Heightened Def Con from 0.00248065 to 0.00248065
Heightened Def Con from 0.00248065 to 0.00248065
Heightened Def Con from 0.00248065 to 0.00248065
Heightened Def Con from 0.00248065 to 0.00248065
Heightened Def Con from 0.00248065 to 0.00248065
Heightened Def Con from 0.00248065 to 0.00248065
Heightened Def Con from 0.00248065 to 0.00248065
Heightened Def Con from 0.00248065 to 0.00248065
Heightened Def Con from 0.00248065 to 0.00248065
Heightened Def Con from 0.00248065 to 0.00248065
Heightened Def Con from 0.00248065 to 0.00248065
Heightened Def Con from 0.00248065 to 0.00248065
Heightened Def Con from 0.00248065 to 0.00248065
Heightened Def Con from 0.00248065 to 0.00248065
Heightened Def Con from 0.00248065 to 0.00248065
Heightened Def Con from 0.00248065 to 0.00248065
Heightened Def Con from 0.00248065 to 0.00248065
Heightened Def Con from 0.00248065 to 0.00248065
Heightened Def Con from 0.00248065 to 0.00248065
Heightened Def Con from 0.00248065 to 0.00248065
Heightened Def Con from 0.00248065 to 0.00248065
Heightened Def Con from 0.00248065 to 0.00248065
Heightened Def Con from 0.00248065 to 0.00248065
Heightened Def Con from 0.00248065 to 0.00248065
Heightened Def Con from 0.00248065 to 0.00248065
Heightened Def Con from 0.00248065 to 0.00248065
Heightened Def Con from 0.00248065 to 0.00248065
Heightened Def Con from 0.00248065 to 0.00248065
Heightened Def Con from 0.00248065 to 0.00248065
Heightened Def Con from 0.00248065 to 0.00248065
Heightened Def Con from 0.00248065 to 0.00248065
Heightened Def Con from 0.00248065 to 0.00248065
Heightened Def Con from 0.00248065 +to 0.00248065
Heightened Def Con from 0.00248065 to 0.00248065
Heightened Def Con from 0.00248065 to 0.00248065
Heightened Def Con from 0.00248065 to 0.00248065
Heightened Def Con from 0.00248065 to 0.00248065
Heightened Def Con from 0.00248065 to 0.00248065
Heightened Def Con from 0.00248065 to 0.00248065
Heightened Def Con from 0.00248065 to 0.00248065
Heightened Def Con from 0.00248065 to 0.00248065
Heightened Def Con from 0.00248065 +to 0.00248065
Heightened Def Con from 0.00248065 to 0.00248065
Heightened Def Con from 0.00248065 to 0.00248065
Heightened Def Con from 0.00248065 to 0.00248065
Heightened Def Con from 0.00248065 to 0.00248065
Heightened Def Con from 0.00248065 to 0.00248065
Heightened Def Con from 0.00248065 to 0.00248065
Heightened Def Con from 0.00248065 to 0.00248065
Heightened Def Con from 0.00248065 +to 0.00248065
Heightened Def Con from 0.00248065 to 0.00248065
Heightened Def Con from 0.00248065 to 0.00248065
Heightened Def Con from 0.00248065 to 0.00248065
Heightened Def Con from 0.00248065 to 0.00248065
Heightened Def Con from 0.00248065 to 0.00248065
Heightened Def Con from 0.00248065 to 0.00248065
Heightened Def Con from 0.00248065 to 0.00248065
Heightened Def Con from 0.00248065 to 0.00248065
Heightened Def Con from 0.00248065 to 0.00248065
Heightened Def Con from 0.00248065 to 0.00248065
Heightened Def Con from 0.00248065 to 0.00248065
Heightened Def Con from 0.00248065 to 0.00248065
Heightened Def Con from 0.00248065 to 0.00248065
Heightened Def Con from 0.00248065 to 0.00248065
Heightened Def Con from 0.00248065 to 0.00248065
Heightened Def Con from 0.00248065 to 0.00248065
Heightened Def Con from 0.00248065 +to 0.00248065
Heightened Def Con from 0.00248065 to 0.00248065
Heightened Def Con from 0.00248065 to 0.00248065
Heightened Def Con from 0.00248065 to 0.00248065
Heightened Def Con from 0.00248065 to 0.00248065
Heightened Def Con from 0.00248065 to 0.00248065
Heightened Def Con from 0.00248065 to 0.00248065
Heightened Def Con from 0.00248065 to 0.00248065
Heightened Def Con from 0.00248065 +to 0.00248065
Heightened Def Con from 0.00248065 +to 0.00248065
Heightened Def Con from 0.00248065 to 0.00248065
Heightened Def Con from 0.00248065 to 0.00248065
Heightened Def Con from 0.00248065 to 0.00248065
Heightened Def Con from 0.00248065 to 0.00248065
Heightened Def Con from 0.00248065 to 0.00248065
Heightened Def Con from 0.00248065 to 0.00248065
Heightened Def Con from 0.00248065 to 0.00248065
Heightened Def Con from 0.00248065 to 0.00248065
Heightened Def Con from 0.00248065 +to 0.00248065
Heightened Def Con from 0.00248065 to 0.00248065
Heightened Def Con from 0.00248065 to 0.00248065
Heightened Def Con from 0.00248065 to 0.00248065
Heightened Def Con from 0.00248065 to 0.00248065
Heightened Def Con from 0.00248065 +to 0.00248065
Heightened Def Con from 0.00248065 +to 0.00248065
Heightened Def Con from 0.00248065 to 0.00248065
Heightened Def Con from 0.00248065 to 0.00248065
Heightened Def Con from 0.00248065 to 0.00248065
Heightened Def Con from 0.00248065 to 0.00248065
Heightened Def Con from 0.00248065 to 0.00248065
Heightened Def Con from 0.00248065 to 0.00248065
Heightened Def Con from 0.00248065 to 0.00248065
Heightened Def Con from 0.00248065 to 0.00248065
Heightened Def Con from 0.00248065 to 0.00248065
Heightened Def Con from 0.00248065 to 0.00248065
Heightened Def Con from 0.00248065 to 0.00248065
Heightened Def Con from 0.00248065 to 0.00248065
Heightened Def Con from 0.00248065 to 0.00248065
Heightened Def Con from 0.00248065 to 0.00248065
Heightened Def Con from 0.00248065 to 0.00248065
Heightened Def Con from 0.00248065 to 0.00248065
Heightened Def Con from 0.00248065 to 0.00248065
Heightened Def Con from 0.00248065 to 0.00248065
Heightened Def Con from 0.00248065 to 0.00248065
Heightened Def Con from 0.00248065 to 0.00248065
Heightened Def Con from 0.00248065 to 0.00248065
Heightened Def Con from 0.00248065 to 0.00248065
Heightened Def Con from 0.00248065 to 0.00248065
Heightened Def Con from 0.00248065 to 0.00248065
Heightened Def Con from 0.00248065 to 0.00248065
Heightened Def Con from 0.00248065 +to 0.00248065
Heightened Def Con from 0.00248065 to 0.00248065
Heightened Def Con from 0.00248065 to 0.00248065
Heightened Def Con from 0.00248065 +to 0.00248065
Heightened Def Con from 0.00248065 to 0.00248065
Heightened Def Con from 0.00248065 to 0.00248065
Heightened Def Con from 0.00248065 to 0.00248065
Heightened Def Con from 0.00248065 to 0.00248065
Heightened Def Con from 0.00248065 to 0.00248065
Heightened Def Con from 0.00248065 to 0.00248065
Heightened Def Con from 0.00248065 to 0.00248065
Heightened Def Con from 0.00248065 to 0.00248065
Heightened Def Con from 0.00248065 to 0.00248065
Heightened Def Con from 0.00248065 to 0.00248065
Heightened Def Con from 0.00248065 to 0.00248065
Heightened Def Con from 0.00248065 to 0.00248065
Heightened Def Con from 0.00248065 to 0.00248065
Heightened Def Con from 0.00248065 to 0.00248065
Heightened Def Con from 0.00248065 to 0.00248065
Heightened Def Con from 0.00248065 to 0.00248065
Heightened Def Con from 0.00248065 to 0.00248065
Heightened Def Con from 0.00248065 to 0.00248065
Heightened Def Con from 0.00248065 to 0.00248065
Heightened Def Con from 0.00248065 ++to 0.00248065
Heightened Def Con from 0.00248065 to 0.00248065
Heightened Def Con from 0.00248065 to 0.00248065
Heightened Def Con from 0.00248065 to 0.00248065
Heightened Def Con from 0.00248065 to 0.00248065
Heightened Def Con from 0.00248065 to 0.00248065
Heightened Def Con from 0.00248065 to 0.00248065
Heightened Def Con from 0.00248065 to 0.00248065
Heightened Def Con from 0.00248065 to 0.00248065
Heightened Def Con from 0.00248065 to 0.00248065
Heightened Def Con from 0.00248065 to 0.00248065
Heightened Def Con from 0.00248065 to 0.00248065
Heightened Def Con from 0.00248065 to 0.00248065
Heightened Def Con from 0.00248065 to 0.00248065
Heightened Def Con from 0.00248065 to 0.00248065
Heightened Def Con from 0.00248065 to 0.00248065
Heightened Def Con from 0.00248065 to 0.00248065
Heightened Def Con from 0.00248065 to 0.00248065
Heightened Def Con from 0.00248065 to 0.00248065
Heightened Def Con from 0.00248065 to 0.00248065
Heightened Def Con from 0.00248065 to 0.00248065
Heightened Def Con from 0.00248065 to 0.00248065
Heightened Def Con from 0.00248065 to 0.00248065
Heightened Def Con from 0.00248065 to 0.00248065
Heightened Def Con from 0.00248065 to 0.00248065
Heightened Def Con from 0.00248065 to 0.00248065
Heightened Def Con from 0.00248065 to 0.00248065
Heightened Def Con from 0.00248065 +to 0.00248065
Heightened Def Con from 0.00248065 to 0.00248065
Heightened Def Con from 0.00248065 to 0.00248065
Heightened Def Con from 0.00248065 to 0.00248065
Heightened Def Con from 0.00248065 to 0.00248065
Heightened Def Con from 0.00248065 to 0.00248065
Heightened Def Con from 0.00248065 to 0.00248065
Heightened Def Con from 0.00248065 to 0.00248065
Heightened Def Con from 0.00248065 to 0.00248065
Heightened Def Con from 0.00248065 to 0.00248065
Heightened Def Con from 0.00248065 to 0.00248065
Heightened Def Con from 0.00248065 to 0.00248065
Heightened Def Con from 0.00248065 to 0.00248065
Heightened Def Con from 0.00248065 to 0.00248065
Heightened Def Con from 0.00248065 to 0.00248065
Heightened Def Con from 0.00248065 to 0.00248065
Heightened Def Con from 0.00248065 to 0.00248065
Heightened Def Con from 0.00248065 to 0.00248065
Heightened Def Con from 0.00248065 to 0.00248065
Heightened Def Con from 0.00248065 to 0.00248065
Heightened Def Con from 0.00248065 to 0.00248065
Heightened Def Con from 0.00248065 to 0.00248065
Heightened Def Con from 0.00248065 to 0.00248065
Heightened Def Con from 0.00248065 to 0.00248065
Heightened Def Con from 0.00248065 to 0.00248065
Heightened Def Con from 0.00248065 to 0.00248065
Heightened Def Con from 0.00248065 to 0.00248065
Heightened Def Con from 0.00248065 to 0.00248065
Heightened Def Con from 0.00248065 to 0.00248065
Heightened Def Con from 0.00248065 to 0.00248065
Heightened Def Con from 0.00248065 to 0.00248065
Heightened Def Con from 0.00248065 to 0.00248065
Heightened Def Con from 0.00248065 to 0.00248065
Heightened Def Con from 0.00248065 to 0.00248065
Heightened Def Con from 0.00248065 to 0.00248065
Heightened Def Con from 0.00248065 to 0.00248065
Heightened Def Con from 0.00248065 to 0.00248065
Heightened Def Con from 0.00248065 to 0.00248065
Heightened Def Con from 0.00248065 to 0.00248065
Heightened Def Con from 0.00248065 to 0.00248065
Heightened Def Con from 0.00248065 to 0.00248065
Heightened Def Con from 0.00248065 to 0.00248065
Heightened Def Con from 0.00248065 to 0.00248065
Heightened Def Con from 0.00248065 to 0.00248065
Heightened Def Con from 0.00248065 to 0.00248065
Heightened Def Con from 0.00248065 to 0.00248065
Heightened Def Con from 0.00248065 to 0.00248065
Heightened Def Con from 0.00248065 to 0.00248065
Heightened Def Con from 0.00248065 to 0.00248065
Heightened Def Con from 0.00248065 to 0.00248065
Heightened Def Con from 0.00248065 to 0.00248065
Heightened Def Con from 0.00248065 to 0.00248065
Heightened Def Con from 0.00248065 to 0.00248065
Heightened Def Con from 0.00248065 to 0.00248065
Heightened Def Con from 0.00248065 to 0.00248065
Heightened Def Con from 0.00248065 to 0.00248065
Heightened Def Con from 0.00248065 to 0.00248065
Heightened Def Con from 0.00248065 to 0.00248065
Heightened Def Con from 0.00248065 to 0.00248065
Heightened Def Con from 0.00248065 to 0.00248065
Heightened Def Con from 0.00248065 to 0.00248065
Heightened Def Con from 0.00248065 +to 0.00248065
Heightened Def Con from 0.00248065 to 0.00248065
Heightened Def Con from 0.00248065 to 0.00248065
Heightened Def Con from 0.00248065 to 0.00248065
Heightened Def Con from 0.00248065 to 0.00248065
Heightened Def Con from 0.00248065 to 0.00248065
Heightened Def Con from 0.00248065 to 0.00248065
Heightened Def Con from 0.00248065 to 0.00248065
Heightened Def Con from 0.00248065 to 0.00248065
Heightened Def Con from 0.00248065 to 0.00248065
Heightened Def Con from 0.00248065 to 0.00248065
Heightened Def Con from 0.00248065 to 0.00248065
Heightened Def Con from 0.00248065 to 0.00248065
Heightened Def Con from 0.00248065 to 0.00248065
Heightened Def Con from 0.00248065 to 0.00248065
Heightened Def Con from 0.00248065 to 0.00248065
Heightened Def Con from 0.00248065 +to 0.00248065
Heightened Def Con from 0.00248065 to 0.00248065
Heightened Def Con from 0.00248065 +to 0.00248065
Heightened Def Con from 0.00248065 to 0.00248065
Heightened Def Con from 0.00248065 ++to 0.00248065
Heightened Def Con from 0.00248065 to 0.00248065
Heightened Def Con from 0.00248065 to 0.00248065
Heightened Def Con from 0.00248065 to 0.00248065
Heightened Def Con from 0.00248065 to 0.00248065
Heightened Def Con from 0.00248065 to 0.00248065
Heightened Def Con from 0.00248065 to 0.00248065
Heightened Def Con from 0.00248065 to 0.00248065
Heightened Def Con from 0.00248065 to 0.00248065
Heightened Def Con from 0.00248065 to 0.00248065
Heightened Def Con from 0.00248065 to 0.00248065
Heightened Def Con from 0.00248065 to 0.00248065
Heightened Def Con from 0.00248065 to 0.00248065
Heightened Def Con from 0.00248065 to 0.00248065
Heightened Def Con from 0.00248065 to 0.00248065
Heightened Def Con from 0.00248065 to 0.00248065
Heightened Def Con from 0.00248065 to 0.00248065
Heightened Def Con from 0.00248065 to 0.00248065
Heightened Def Con from 0.00248065 to 0.00248065
Heightened Def Con from 0.00248065 to 0.00248065
Heightened Def Con from 0.00248065 to 0.00248065
Heightened Def Con from 0.00248065 to 0.00248065
Heightened Def Con from 0.00248065 to 0.00248065
Heightened Def Con from 0.00248065 to 0.00248065
Heightened Def Con from 0.00248065 to 0.00248065
Heightened Def Con from 0.00248065 to 0.00248065
Heightened Def Con from 0.00248065 to 0.00248065
Heightened Def Con from 0.00248065 to 0.00248065
Heightened Def Con from 0.00248065 to 0.00248065
Heightened Def Con from 0.00248065 to 0.00248065
Heightened Def Con from 0.00248065 to 0.00248065
Heightened Def Con from 0.00248065 to 0.00248065
Heightened Def Con from 0.00248065 to 0.00248065
Heightened Def Con from 0.00248065 to 0.00248065
Heightened Def Con from 0.00248065 to 0.00248065
Heightened Def Con from 0.00248065 +to 0.00248065
Heightened Def Con from 0.00248065 to 0.00248065
Heightened Def Con from 0.00248065 to 0.00248065
Heightened Def Con from 0.00248065 to 0.00248065
Heightened Def Con from 0.00248065 to 0.00248065
Heightened Def Con from 0.00248065 to 0.00248065
Heightened Def Con from 0.00248065 to 0.00248065
Heightened Def Con from 0.00248065 to 0.00248065
Heightened Def Con from 0.00248065 to 0.00248065
Heightened Def Con from 0.00248065 to 0.00248065
Heightened Def Con from 0.00248065 to 0.00248065
Heightened Def Con from 0.00248065 to 0.00248065
Heightened Def Con from 0.00248065 to 0.00248065
Heightened Def Con from 0.00248065 to 0.00248065
Heightened Def Con from 0.00248065 to 0.00248065
Heightened Def Con from 0.00248065 to 0.00248065
Heightened Def Con from 0.00248065 to 0.00248065
Heightened Def Con from 0.00248065 to 0.00248065
Heightened Def Con from 0.00248065 to 0.00248065
Heightened Def Con from 0.00248065 to 0.00248065
Heightened Def Con from 0.00248065 to 0.00248065
Heightened Def Con from 0.00248065 to 0.00248065
Heightened Def Con from 0.00248065 to 0.00248065
Heightened Def Con from 0.00248065 to 0.00248065
Heightened Def Con from 0.00248065 to 0.00248065
Heightened Def Con from 0.00248065 to 0.00248065
Heightened Def Con from 0.00248065 ++to 0.00248065
Heightened Def Con from 0.00248065 to 0.00248065
Heightened Def Con from 0.00248065 to 0.00248065
Heightened Def Con from 0.00248065 to 0.00248065
Heightened Def Con from 0.00248065 to 0.00248065
Heightened Def Con from 0.00248065 to 0.00248065
Heightened Def Con from 0.00248065 to 0.00248065
Heightened Def Con from 0.00248065 to 0.00248065
Heightened Def Con from 0.00248065 to 0.00248065
Heightened Def Con from 0.00248065 to 0.00248065
Heightened Def Con from 0.00248065 to 0.00248065
Heightened Def Con from 0.00248065 to 0.00248065
Heightened Def Con from 0.00248065 to 0.00248065
Heightened Def Con from 0.00248065 +to 0.00248065
Heightened Def Con from 0.00248065 to 0.00248065
Heightened Def Con from 0.00248065 +to 0.00248065
Heightened Def Con from 0.00248065 to 0.00248065
Heightened Def Con from 0.00248065 +to 0.00248065
Heightened Def Con from 0.00248065 to 0.00248065
Heightened Def Con from 0.00248065 to 0.00248065
Heightened Def Con from 0.00248065 to 0.00248065
Heightened Def Con from 0.00248065 to 0.00248065
Heightened Def Con from 0.00248065 to 0.00248065
Heightened Def Con from 0.00248065 to 0.00248065
Heightened Def Con from 0.00248065 to 0.00248065
Heightened Def Con from 0.00248065 to 0.00248065
Heightened Def Con from 0.00248065 to 0.00248065
Heightened Def Con from 0.00248065 to 0.00248065
Heightened Def Con from 0.00248065 to 0.00248065
Heightened Def Con from 0.00248065 to 0.00248065
Heightened Def Con from 0.00248065 to 0.00248065
Heightened Def Con from 0.00248065 to 0.00248065
Heightened Def Con from 0.00248065 +to 0.00248065
Heightened Def Con from 0.00248065 to 0.00248065
Heightened Def Con from 0.00248065 to 0.00248065
Heightened Def Con from 0.00248065 to 0.00248065
Heightened Def Con from 0.00248065 to 0.00248065
Heightened Def Con from 0.00248065 to 0.00248065
Heightened Def Con from 0.00248065 to 0.00248065
Heightened Def Con from 0.00248065 to 0.00248065
Heightened Def Con from 0.00248065 to 0.00248065
Heightened Def Con from 0.00248065 to 0.00248065
Heightened Def Con from 0.00248065 to 0.00248065
Heightened Def Con from 0.00248065 to 0.00248065
Heightened Def Con from 0.00248065 to 0.00248065
Heightened Def Con from 0.00248065 to 0.00248065
Heightened Def Con from 0.00248065 to 0.00248065
Heightened Def Con from 0.00248065 to 0.00248065
Heightened Def Con from 0.00248065 to 0.00248065
Heightened Def Con from 0.00248065 to 0.00248065
Heightened Def Con from 0.00248065 to 0.00248065
Heightened Def Con from 0.00248065 +to 0.00248065
Heightened Def Con from 0.00248065 to 0.00248065
Heightened Def Con from 0.00248065 to 0.00248065
Heightened Def Con from 0.00248065 to 0.00248065
Heightened Def Con from 0.00248065 to 0.00248065
Heightened Def Con from 0.00248065 to 0.00248065
Heightened Def Con from 0.00248065 to 0.00248065
Heightened Def Con from 0.00248065 to 0.00248065
Heightened Def Con from 0.00248065 to 0.00248065
Heightened Def Con from 0.00248065 to 0.00248065
Heightened Def Con from 0.00248065 to 0.00248065
Heightened Def Con from 0.00248065 to 0.00248065
Heightened Def Con from 0.00248065 to 0.00248065
Heightened Def Con from 0.00248065 to 0.00248065
Heightened Def Con from 0.00248065 to 0.00248065
Heightened Def Con from 0.00248065 to 0.00248065
Heightened Def Con from 0.00248065 to 0.00248065
Heightened Def Con from 0.00248065 to 0.00248065
Heightened Def Con from 0.00248065 to 0.00248065
Heightened Def Con from 0.00248065 to 0.00248065
Heightened Def Con from 0.00248065 to 0.00248065
Heightened Def Con from 0.00248065 to 0.00248065
Heightened Def Con from 0.00248065 to 0.00248065
Heightened Def Con from 0.00248065 to 0.00248065
Heightened Def Con from 0.00248065 to 0.00248065
Heightened Def Con from 0.00248065 to 0.00248065
Heightened Def Con from 0.00248065 to 0.00248065
Heightened Def Con from 0.00248065 +to 0.00248065
Heightened Def Con from 0.00248065 to 0.00248065
Heightened Def Con from 0.00248065 to 0.00248065
Heightened Def Con from 0.00248065 to 0.00248065
Heightened Def Con from 0.00248065 to 0.00248065
Heightened Def Con from 0.00248065 to 0.00248065
Heightened Def Con from 0.00248065 to 0.00248065
Heightened Def Con from 0.00248065 to 0.00248065
Heightened Def Con from 0.00248065 to 0.00248065
Heightened Def Con from 0.00248065 to 0.00248065
Heightened Def Con from 0.00248065 to 0.00248065
Heightened Def Con from 0.00248065 to 0.00248065
Heightened Def Con from 0.00248065 +to 0.00248065
Heightened Def Con from 0.00248065 to 0.00248065
Heightened Def Con from 0.00248065 to 0.00248065
Heightened Def Con from 0.00248065 to 0.00248065
Heightened Def Con from 0.00248065 to 0.00248065
Heightened Def Con from 0.00248065 to 0.00248065
Heightened Def Con from 0.00248065 to 0.00248065
Heightened Def Con from 0.00248065 +to 0.00248065
Heightened Def Con from 0.00248065 to 0.00248065
Heightened Def Con from 0.00248065 to 0.00248065
Heightened Def Con from 0.00248065 to 0.00248065
Heightened Def Con from 0.00248065 to 0.00248065
Heightened Def Con from 0.00248065 to 0.00248065
Heightened Def Con from 0.00248065 to 0.00248065
Heightened Def Con from 0.00248065 to 0.00248065
Heightened Def Con from 0.00248065 to 0.00248065
Heightened Def Con from 0.00248065 to 0.00248065
Heightened Def Con from 0.00248065 to 0.00248065
Heightened Def Con from 0.00248065 to 0.00248065
Heightened Def Con from 0.00248065 to 0.00248065
Heightened Def Con from 0.00248065 to 0.00248065
Heightened Def Con from 0.00248065 to 0.00248065
Heightened Def Con from 0.00248065 to 0.00248065
Heightened Def Con from 0.00248065 to 0.00248065
Heightened Def Con from 0.00248065 to 0.00248065
Heightened Def Con from 0.00248065 +to 0.00248065
Heightened Def Con from 0.00248065 to 0.00248065
Heightened Def Con from 0.00248065 to 0.00248065
Heightened Def Con from 0.00248065 to 0.00248065
Heightened Def Con from 0.00248065 to 0.00248065
Heightened Def Con from 0.00248065 to 0.00248065
Heightened Def Con from 0.00248065 to 0.00248065
Heightened Def Con from 0.00248065 to 0.00248065
Heightened Def Con from 0.00248065 to 0.00248065
Heightened Def Con from 0.00248065 to 0.00248065
Heightened Def Con from 0.00248065 to 0.00248065
Heightened Def Con from 0.00248065 to 0.00248065
Heightened Def Con from 0.00248065 to 0.00248065
Heightened Def Con from 0.00248065 to 0.00248065
Heightened Def Con from 0.00248065 to 0.00248065
Heightened Def Con from 0.00248065 to 0.00248065
Heightened Def Con from 0.00248065 to 0.00248065
Heightened Def Con from 0.00248065 to 0.00248065
Heightened Def Con from 0.00248065 to 0.00248065
Heightened Def Con from 0.00248065 to 0.00248065
Heightened Def Con from 0.00248065 to 0.00248065
Heightened Def Con from 0.00248065 to 0.00248065
Heightened Def Con from 0.00248065 to 0.00248065
Heightened Def Con from 0.00248065 to 0.00248065
Heightened Def Con from 0.00248065 to 0.00248065
Heightened Def Con from 0.00248065 to 0.00248065
Heightened Def Con from 0.00248065 to 0.00248065
Heightened Def Con from 0.00248065 to 0.00248065
Heightened Def Con from 0.00248065 to 0.00248065
Heightened Def Con from 0.00248065 to 0.00248065
Heightened Def Con from 0.00248065 to 0.00248065
Heightened Def Con from 0.00248065 to 0.00248065
Heightened Def Con from 0.00248065 to 0.00248065
Heightened Def Con from 0.00248065 to 0.00248065
Heightened Def Con from 0.00248065 to 0.00248065
Heightened Def Con from 0.00248065 to 0.00248065
Heightened Def Con from 0.00248065 to 0.00248065
Heightened Def Con from 0.00248065 to 0.00248065
Heightened Def Con from 0.00248065 to 0.00248065
Heightened Def Con from 0.00248065 to 0.00248065
Heightened Def Con from 0.00248065 to 0.00248065
Heightened Def Con from 0.00248065 to 0.00248065
Heightened Def Con from 0.00248065 to 0.00248065
Heightened Def Con from 0.00248065 to 0.00248065
Heightened Def Con from 0.00248065 to 0.00248065
Heightened Def Con from 0.00248065 to 0.00248065
Heightened Def Con from 0.00248065 to 0.00248065
Heightened Def Con from 0.00248065 to 0.00248065
Heightened Def Con from 0.00248065 to 0.00248065
Heightened Def Con from 0.00248065 to 0.00248065
Heightened Def Con from 0.00248065 to 0.00248065
Heightened Def Con from 0.00248065 to 0.00248065
Heightened Def Con from 0.00248065 to 0.00248065
Heightened Def Con from 0.00248065 to 0.00248065
Heightened Def Con from 0.00248065 to 0.00248065
Heightened Def Con from 0.00248065 to 0.00248065
Heightened Def Con from 0.00248065 to 0.00248065
Heightened Def Con from 0.00248065 to 0.00248065
Heightened Def Con from 0.00248065 to 0.00248065
Heightened Def Con from 0.00248065 to 0.00248065
Heightened Def Con from 0.00248065 to 0.00248065
Heightened Def Con from 0.00248065 to 0.00248065
Heightened Def Con from 0.00248065 to 0.00248065
Heightened Def Con from 0.00248065 to 0.00248065
Heightened Def Con from 0.00248065 to 0.00248065
Heightened Def Con from 0.00248065 to 0.00248065
Heightened Def Con from 0.00248065 to 0.00248065
Heightened Def Con from 0.00248065 to 0.00248065
Heightened Def Con from 0.00248065 to 0.00248065
Heightened Def Con from 0.00248065 to 0.00248065
Heightened Def Con from 0.00248065 to 0.00248065
Heightened Def Con from 0.00248065 to 0.00248065
Heightened Def Con from 0.00248065 to 0.00248065
Heightened Def Con from 0.00248065 to 0.00248065
Heightened Def Con from 0.00248065 to 0.00248065
Heightened Def Con from 0.00248065 to 0.00248065
Heightened Def Con from 0.00248065 to 0.00248065
Heightened Def Con from 0.00248065 +to 0.00248065
Heightened Def Con from 0.00248065 to 0.00248065
Heightened Def Con from 0.00248065 to 0.00248065
Heightened Def Con from 0.00248065 to 0.00248065
Heightened Def Con from 0.00248065 to 0.00248065
Heightened Def Con from 0.00248065 to 0.00248065
Heightened Def Con from 0.00248065 to 0.00248065
Heightened Def Con from 0.00248065 to 0.00248065
Heightened Def Con from 0.00248065 to 0.00248065
Heightened Def Con from 0.00248065 to 0.00248065
Heightened Def Con from 0.00248065 to 0.00248065
Heightened Def Con from 0.00248065 to 0.00248065
Heightened Def Con from 0.00248065 to 0.00248065
Heightened Def Con from 0.00248065 to 0.00248065
Heightened Def Con from 0.00248065 to 0.00248065
Heightened Def Con from 0.00248065 to 0.00248065
Heightened Def Con from 0.00248065 to 0.00248065
Heightened Def Con from 0.00248065 to 0.00248065
Heightened Def Con from 0.00248065 to 0.00248065
Heightened Def Con from 0.00248065 to 0.00248065
Heightened Def Con from 0.00248065 to 0.00248065
Heightened Def Con from 0.00248065 to 0.00248065
Heightened Def Con from 0.00248065 to 0.00248065
Heightened Def Con from 0.00248065 to 0.00248065
Heightened Def Con from 0.00248065 to 0.00248065
Heightened Def Con from 0.00248065 to 0.00248065
Heightened Def Con from 0.00248065 to 0.00248065
Heightened Def Con from 0.00248065 +to 0.00248065
Heightened Def Con from 0.00248065 to 0.00248065
Heightened Def Con from 0.00248065 to 0.00248065
Heightened Def Con from 0.00248065 to 0.00248065
Heightened Def Con from 0.00248065 to 0.00248065
Heightened Def Con from 0.00248065 to 0.00248065
Heightened Def Con from 0.00248065 to 0.00248065
Heightened Def Con from 0.00248065 to 0.00248065
Heightened Def Con from 0.00248065 to 0.00248065
Heightened Def Con from 0.00248065 to 0.00248065
Heightened Def Con from 0.00248065 to 0.00248065
Heightened Def Con from 0.00248065 to 0.00248065
Heightened Def Con from 0.00248065 to 0.00248065
Heightened Def Con from 0.00248065 to 0.00248065
Heightened Def Con from 0.00248065 to 0.00248065
Heightened Def Con from 0.00248065 to 0.00248065
Heightened Def Con from 0.00248065 to 0.00248065
Heightened Def Con from 0.00248065 to 0.00248065
Heightened Def Con from 0.00248065 to 0.00248065
Heightened Def Con from 0.00248065 to 0.00248065
Heightened Def Con from 0.00248065 to 0.00248065
Heightened Def Con from 0.00248065 +to 0.00248065
Heightened Def Con from 0.00248065 to 0.00248065
Heightened Def Con from 0.00248065 to 0.00248065
Heightened Def Con from 0.00248065 to 0.00248065
Heightened Def Con from 0.00248065 to 0.00248065
Heightened Def Con from 0.00248065 to 0.00248065
Heightened Def Con from 0.00248065 to 0.00248065
Heightened Def Con from 0.00248065 to 0.00248065
Heightened Def Con from 0.00248065 to 0.00248065
Heightened Def Con from 0.00248065 to 0.00248065
Heightened Def Con from 0.00248065 to 0.00248065
Heightened Def Con from 0.00248065 to 0.00248065
Heightened Def Con from 0.00248065 to 0.00248065
Heightened Def Con from 0.00248065 to 0.00248065
Heightened Def Con from 0.00248065 to 0.00248065
Heightened Def Con from 0.00248065 to 0.00248065
Heightened Def Con from 0.00248065 to 0.00248065
Heightened Def Con from 0.00248065 to 0.00248065
Heightened Def Con from 0.00248065 to 0.00248065
Heightened Def Con from 0.00248065 to 0.00248065
Heightened Def Con from 0.00248065 to 0.00248065
Heightened Def Con from 0.00248065 to 0.00248065
Heightened Def Con from 0.00248065 to 0.00248065
Heightened Def Con from 0.00248065 to 0.00248065
Heightened Def Con from 0.00248065 to 0.00248065
Heightened Def Con from 0.00248065 to 0.00248065
Heightened Def Con from 0.00248065 to 0.00248065
Heightened Def Con from 0.00248065 to 0.00248065
Heightened Def Con from 0.00248065 to 0.00248065
Heightened Def Con from 0.00248065 to 0.00248065
Heightened Def Con from 0.00248065 to 0.00248065
Heightened Def Con from 0.00248065 to 0.00248065
Heightened Def Con from 0.00248065 to 0.00248065
Heightened Def Con from 0.00248065 to 0.00248065
Heightened Def Con from 0.00248065 to 0.00248065
Heightened Def Con from 0.00248065 to 0.00248065
Heightened Def Con from 0.00248065 to 0.00248065
Heightened Def Con from 0.00248065 to 0.00248065
Heightened Def Con from 0.00248065 +to 0.00248065
Heightened Def Con from 0.00248065 to 0.00248065
Heightened Def Con from 0.00248065 to 0.00248065
Heightened Def Con from 0.00248065 to 0.00248065
Heightened Def Con from 0.00248065 to 0.00248065
Heightened Def Con from 0.00248065 to 0.00248065
Heightened Def Con from 0.00248065 to 0.00248065
Heightened Def Con from 0.00248065 +to 0.00248065
Heightened Def Con from 0.00248065 to 0.00248065
Heightened Def Con from 0.00248065 +to 0.00248065
Heightened Def Con from 0.00248065 to 0.00248065
Heightened Def Con from 0.00248065 to 0.00248065
Heightened Def Con from 0.00248065 to 0.00248065
Heightened Def Con from 0.00248065 to 0.00248065
Heightened Def Con from 0.00248065 to 0.00248065
Heightened Def Con from 0.00248065 to 0.00248065
Heightened Def Con from 0.00248065 to 0.00248065
Heightened Def Con from 0.00248065 to 0.00248065
Heightened Def Con from 0.00248065 +to 0.00248065
Heightened Def Con from 0.00248065 to 0.00248065
Heightened Def Con from 0.00248065 to 0.00248065
Heightened Def Con from 0.00248065 to 0.00248065
Heightened Def Con from 0.00248065 +to 0.00248065
Heightened Def Con from 0.00248065 to 0.00248065
Heightened Def Con from 0.00248065 to 0.00248065
Heightened Def Con from 0.00248065 to 0.00248065
Heightened Def Con from 0.00248065 to 0.00248065
Heightened Def Con from 0.00248065 to 0.00248065
Heightened Def Con from 0.00248065 to 0.00248065
Heightened Def Con from 0.00248065 to 0.00248065
Heightened Def Con from 0.00248065 to 0.00248065
Heightened Def Con from 0.00248065 to 0.00248065
Heightened Def Con from 0.00248065 to 0.00248065
Heightened Def Con from 0.00248065 to 0.00248065
Heightened Def Con from 0.00248065 to 0.00248065
Heightened Def Con from 0.00248065 to 0.00248065
Heightened Def Con from 0.00248065 +to 0.00248065
Heightened Def Con from 0.00248065 to 0.00248065
Heightened Def Con from 0.00248065 to 0.00248065
Heightened Def Con from 0.00248065 to 0.00248065
Heightened Def Con from 0.00248065 to 0.00248065
Heightened Def Con from 0.00248065 to 0.00248065
Heightened Def Con from 0.00248065 to 0.00248065
Heightened Def Con from 0.00248065 to 0.00248065
[...]
Heightened Def Con from 0.00248065 to 0.00248065
Heightened Def Con from 0.00248065 to 0.00248065
Heightened Def Con from 0.00248065 to 0.00248065
Heightened Def Con from 0.00248065 to 0.00248065
Heightened Def Con from 0.00248065 to 0.00248065
Heightened Def Con from 0.00248065 to 0.00248065
Heightened Def Con from 0.00248065 to 0.00248065
Heightened Def Con from 0.00248065 to 0.00248065
Heightened Def Con from 0.00248065 to 0.00248065
Heightened Def Con from 0.00248065 to 0.00248065
Heightened Def Con from 0.00248065 to 0.00248065
Heightened Def Con from 0.00248065 +to 0.00248065
Heightened Def Con from 0.00248065 to 0.00248065
Heightened Def Con from 0.00248065 +to 0.00248065
Heightened Def Con from 0.00248065 to 0.00248065
Heightened Def Con from 0.00248065 to 0.00248065
Heightened Def Con from 0.00248065 to 0.00248065
Heightened Def Con from 0.00248065 to 0.00248065
Heightened Def Con from 0.00248065 to 0.00248065
Heightened Def Con from 0.00248065 to 0.00248065
Heightened Def Con from 0.00248065 to 0.00248065
Heightened Def Con from 0.00248065 to 0.00248065
Heightened Def Con from 0.00248065 to 0.00248065
Heightened Def Con from 0.00248065 to 0.00248065
Heightened Def Con from 0.00248065 to 0.00248065
Heightened Def Con from 0.00248065 to 0.00248065
Heightened Def Con from 0.00248065 to 0.00248065
Heightened Def Con from 0.00248065 to 0.00248065
Heightened Def Con from 0.00248065 to 0.00248065
Heightened Def Con from 0.00248065 to 0.00248065
Heightened Def Con from 0.00248065 to 0.00248065
Heightened Def Con from 0.00248065 to 0.00248065
Heightened Def Con from 0.00248065 to 0.00248065
Heightened Def Con from 0.00248065 to 0.00248065
Heightened Def Con from 0.00248065 to 0.00248065
Heightened Def Con from 0.00248065 to 0.00248065
Heightened Def Con from 0.00248065 to 0.00248065
Heightened Def Con from 0.00248065 to 0.00248065
Heightened Def Con from 0.00248065 to 0.00248065
Heightened Def Con from 0.00248065 to 0.00248065
Heightened Def Con from 0.00248065 to 0.00248065
Heightened Def Con from 0.00248065 to 0.00248065
Heightened Def Con from 0.00248065 to 0.00248065
Heightened Def Con from 0.00248065 +to 0.00248065
Heightened Def Con from 0.00248065 to 0.00248065
Heightened Def Con from 0.00248065 to 0.00248065
Heightened Def Con from 0.00248065 +to 0.00248065
Heightened Def Con from 0.00248065 to 0.00248065
Heightened Def Con from 0.00248065 to 0.00248065
Heightened Def Con from 0.00248065 to 0.00248065
Heightened Def Con from 0.00248065 +to 0.00248065
Heightened Def Con from 0.00248065 to 0.00248065
Heightened Def Con from 0.00248065 to 0.00248065
Heightened Def Con from 0.00248065 to 0.00248065
Heightened Def Con from 0.00248065 to 0.00248065
Heightened Def Con from 0.00248065 to 0.00248065
Heightened Def Con from 0.00248065 to 0.00248065
Heightened Def Con from 0.00248065 to 0.00248065
Heightened Def Con from 0.00248065 to 0.00248065
Heightened Def Con from 0.00248065 to 0.00248065
Heightened Def Con from 0.00248065 to 0.00248065
Heightened Def Con from 0.00248065 to 0.00248065
Heightened Def Con from 0.00248065 to 0.00248065
Heightened Def Con from 0.00248065 to 0.00248065
Heightened Def Con from 0.00248065 +to 0.00248065
Heightened Def Con from 0.00248065 to 0.00248065
Heightened Def Con from 0.00248065 to 0.00248065
Heightened Def Con from 0.00248065 to 0.00248065
Heightened Def Con from 0.00248065 to 0.00248065
Heightened Def Con from 0.00248065 +to 0.00248065
Heightened Def Con from 0.00248065 +to 0.00248065
Heightened Def Con from 0.00248065 to 0.00248065
Heightened Def Con from 0.00248065 to 0.00248065
Heightened Def Con from 0.00248065 to 0.00248065
Heightened Def Con from 0.00248065 to 0.00248065
Heightened Def Con from 0.00248065 to 0.00248065
Heightened Def Con from 0.00248065 to 0.00248065
Heightened Def Con from 0.00248065 to 0.00248065
Heightened Def Con from 0.00248065 to 0.00248065
Heightened Def Con from 0.00248065 to 0.00248065
Heightened Def Con from 0.00248065 to 0.00248065
Heightened Def Con from 0.00248065 to 0.00248065
Heightened Def Con from 0.00248065 to 0.00248065
Heightened Def Con from 0.00248065 to 0.00248065
Heightened Def Con from 0.00248065 to 0.00248065
Heightened Def Con from 0.00248065 to 0.00248065
Heightened Def Con from 0.00248065 to 0.00248065
Heightened Def Con from 0.00248065 to 0.00248065
Heightened Def Con from 0.00248065 to 0.00248065
Heightened Def Con from 0.00248065 to 0.00248065
Heightened Def Con from 0.00248065 to 0.00248065
Heightened Def Con from 0.00248065 to 0.00248065
Heightened Def Con from 0.00248065 to 0.00248065
Heightened Def Con from 0.00248065 to 0.00248065
Heightened Def Con from 0.00248065 to 0.00248065
Heightened Def Con from 0.00248065 +to 0.00248065
Heightened Def Con from 0.00248065 to 0.00248065
Heightened Def Con from 0.00248065 to 0.00248065
Heightened Def Con from 0.00248065 to 0.00248065
Heightened Def Con from 0.00248065 to 0.00248065
Heightened Def Con from 0.00248065 +to 0.00248065
Heightened Def Con from 0.00248065 to 0.00248065
Heightened Def Con from 0.00248065 +to 0.00248065
Heightened Def Con from 0.00248065 +to 0.00248065
Heightened Def Con from 0.00248065 to 0.00248065
Heightened Def Con from 0.00248065 ++to 0.00248065
Heightened Def Con from 0.00248065 to 0.00248065
Heightened Def Con from 0.00248065 to 0.00248065
Heightened Def Con from 0.00248065 to 0.00248065
Heightened Def Con from 0.00248065 to 0.00248065
Heightened Def Con from 0.00248065 to 0.00248065
Heightened Def Con from 0.00248065 to 0.00248065
Heightened Def Con from 0.00248065 to 0.00248065
Heightened Def Con from 0.00248065 to 0.00248065
Heightened Def Con from 0.00248065 to 0.00248065
Heightened Def Con from 0.00248065 +to 0.00248065
Heightened Def Con from 0.00248065 to 0.00248065
Heightened Def Con from 0.00248065 to 0.00248065
Heightened Def Con from 0.00248065 to 0.00248065
Heightened Def Con from 0.00248065 to 0.00248065
Heightened Def Con from 0.00248065 to 0.00248065
Heightened Def Con from 0.00248065 to 0.00248065
Heightened Def Con from 0.00248065 to 0.00248065
Heightened Def Con from 0.00248065 to 0.00248065
Heightened Def Con from 0.00248065 to 0.00248065
Heightened Def Con from 0.00248065 to 0.00248065
Heightened Def Con from 0.00248065 to 0.00248065
Heightened Def Con from 0.00248065 to 0.00248065
Heightened Def Con from 0.00248065 to 0.00248065
Heightened Def Con from 0.00248065 to 0.00248065
Heightened Def Con from 0.00248065 +to 0.00248065
Heightened Def Con from 0.00248065 to 0.00248065
Heightened Def Con from 0.00248065 to 0.00248065
Heightened Def Con from 0.00248065 to 0.00248065
Heightened Def Con from 0.00248065 +to 0.00248065
Heightened Def Con from 0.00248065 to 0.00248065
Heightened Def Con from 0.00248065 to 0.00248065
Heightened Def Con from 0.00248065 ++to 0.00248065
Heightened Def Con from 0.00248065 +to 0.00248065
Heightened Def Con from 0.00248065 to 0.00248065
Heightened Def Con from 0.00248065 to 0.00248065
Heightened Def Con from 0.00248065 to 0.00248065
Heightened Def Con from 0.00248065 to 0.00248065
Heightened Def Con from 0.00248065 to 0.00248065
Heightened Def Con from 0.00248065 +to 0.00248065
Heightened Def Con from 0.00248065 to 0.00248065
Heightened Def Con from 0.00248065 +to 0.00248065
Heightened Def Con from 0.00248065 +to 0.00248065
Heightened Def Con from 0.00248065 to 0.00248065
Heightened Def Con from 0.00248065 +to 0.00248065
Heightened Def Con from 0.00248065 to 0.00248065
Heightened Def Con from 0.00248065 to 0.00248065
Heightened Def Con from 0.00248065 to 0.00248065
Heightened Def Con from 0.00248065 +to 0.00248065
Heightened Def Con from 0.00248065 to 0.00248065
Heightened Def Con from 0.00248065 +to 0.00248065
Heightened Def Con from 0.00248065 to 0.00248065
Heightened Def Con from 0.00248065 to 0.00248065
Heightened Def Con from 0.00248065 to 0.00248065
Heightened Def Con from 0.00248065 +to 0.00248065
Heightened Def Con from 0.00248065 to 0.00248065
Heightened Def Con from 0.00248065 to 0.00248065
Heightened Def Con from 0.00248065 to 0.00248065
Heightened Def Con from 0.00248065 to 0.00248065
Heightened Def Con from 0.00248065 to 0.00248065
Heightened Def Con from 0.00248065 to 0.00248065
Heightened Def Con from 0.00248065 +to 0.00248065
Heightened Def Con from 0.00248065 to 0.00248065
Heightened Def Con from 0.00248065 to 0.00248065
Heightened Def Con from 0.00248065 to 0.00248065
Heightened Def Con from 0.00248065 to 0.00248065
Heightened Def Con from 0.00248065 to 0.00248065
Heightened Def Con from 0.00248065 to 0.00248065
Heightened Def Con from 0.00248065 to 0.00248065
Heightened Def Con from 0.00248065 to 0.00248065
Heightened Def Con from 0.00248065 to 0.00248065
Heightened Def Con from 0.00248065 +to 0.00248065
Heightened Def Con from 0.00248065 to 0.00248065
Heightened Def Con from 0.00248065 to 0.00248065
Heightened Def Con from 0.00248065 to 0.00248065
Heightened Def Con from 0.00248065 to 0.00248065
Heightened Def Con from 0.00248065 to 0.00248065
Heightened Def Con from 0.00248065 to 0.00248065
Heightened Def Con from 0.00248065 to 0.00248065
Heightened Def Con from 0.00248065 to 0.00248065
Heightened Def Con from 0.00248065 to 0.00248065
Heightened Def Con from 0.00248065 to 0.00248065
Heightened Def Con from 0.00248065 to 0.00248065
Heightened Def Con from 0.00248065 to 0.00248065
Heightened Def Con from 0.00248065 to 0.00248065
Heightened Def Con from 0.00248065 to 0.00248065
Heightened Def Con from 0.00248065 to 0.00248065
Heightened Def Con from 0.00248065 to 0.00248065
Heightened Def Con from 0.00248065 to 0.00248065
Heightened Def Con from 0.00248065 to 0.00248065
Heightened Def Con from 0.00248065 to 0.00248065
Heightened Def Con from 0.00248065 to 0.00248065
Heightened Def Con from 0.00248065 to 0.00248065
Heightened Def Con from 0.00248065 to 0.00248065
Heightened Def Con from 0.00248065 to 0.00248065
Heightened Def Con from 0.00248065 +to 0.00248065
Heightened Def Con from 0.00248065 to 0.00248065
Heightened Def Con from 0.00248065 to 0.00248065
Heightened Def Con from 0.00248065 to 0.00248065
Heightened Def Con from 0.00248065 +to 0.00248065
Heightened Def Con from 0.00248065 to 0.00248065
Heightened Def Con from 0.00248065 to 0.00248065
Heightened Def Con from 0.00248065 to 0.00248065
Heightened Def Con from 0.00248065 to 0.00248065
Heightened Def Con from 0.00248065 to 0.00248065
Heightened Def Con from 0.00248065 to 0.00248065
Heightened Def Con from 0.00248065 to 0.00248065
Heightened Def Con from 0.00248065 to 0.00248065
Heightened Def Con from 0.00248065 to 0.00248065
Heightened Def Con from 0.00248065 to 0.00248065
Heightened Def Con from 0.00248065 to 0.00248065
Heightened Def Con from 0.00248065 to 0.00248065
Heightened Def Con from 0.00248065 to 0.00248065
Heightened Def Con from 0.00248065 to 0.00248065
Heightened Def Con from 0.00248065 to 0.00248065
Heightened Def Con from 0.00248065 to 0.00248065
Heightened Def Con from 0.00248065 to 0.00248065
Heightened Def Con from 0.00248065 to 0.00248065
Heightened Def Con from 0.00248065 to 0.00248065
Heightened Def Con from 0.00248065 to 0.00248065
Heightened Def Con from 0.00248065 to 0.00248065
Heightened Def Con from 0.00248065 to 0.00248065
Heightened Def Con from 0.00248065 to 0.00248065
Heightened Def Con from 0.00248065 to 0.00248065
Heightened Def Con from 0.00248065 to 0.00248065
Heightened Def Con from 0.00248065 to 0.00248065
Heightened Def Con from 0.00248065 to 0.00248065
Heightened Def Con from 0.00248065 to 0.00248065
Heightened Def Con from 0.00248065 to 0.00248065
Heightened Def Con from 0.00248065 to 0.00248065
Heightened Def Con from 0.00248065 to 0.00248065
Heightened Def Con from 0.00248065 to 0.00248065
Heightened Def Con from 0.00248065 +to 0.00248065
Heightened Def Con from 0.00248065 to 0.00248065
Heightened Def Con from 0.00248065 to 0.00248065
Heightened Def Con from 0.00248065 +to 0.00248065
Heightened Def Con from 0.00248065 to 0.00248065
Heightened Def Con from 0.00248065 to 0.00248065
Heightened Def Con from 0.00248065 to 0.00248065
Heightened Def Con from 0.00248065 to 0.00248065
Heightened Def Con from 0.00248065 to 0.00248065
Heightened Def Con from 0.00248065 to 0.00248065
Heightened Def Con from 0.00248065 to 0.00248065
Heightened Def Con from 0.00248065 ++to 0.00248065
Heightened Def Con from 0.00248065 to 0.00248065
Heightened Def Con from 0.00248065 to 0.00248065
Heightened Def Con from 0.00248065 to 0.00248065
Heightened Def Con from 0.00248065 to 0.00248065
Heightened Def Con from 0.00248065 to 0.00248065
Heightened Def Con from 0.00248065 to 0.00248065
Heightened Def Con from 0.00248065 to 0.00248065
Heightened Def Con from 0.00248065 to 0.00248065
Heightened Def Con from 0.00248065 to 0.00248065
Heightened Def Con from 0.00248065 to 0.00248065
Heightened Def Con from 0.00248065 to 0.00248065
Heightened Def Con from 0.00248065 to 0.00248065
Heightened Def Con from 0.00248065 to 0.00248065
Heightened Def Con from 0.00248065 to 0.00248065
Heightened Def Con from 0.00248065 to 0.00248065
Heightened Def Con from 0.00248065 to 0.00248065
Heightened Def Con from 0.00248065 to 0.00248065
Heightened Def Con from 0.00248065 to 0.00248065
Heightened Def Con from 0.00248065 to 0.00248065
Heightened Def Con from 0.00248065 to 0.00248065
Heightened Def Con from 0.00248065 ++to 0.00248065
Heightened Def Con from 0.00248065 to 0.00248065
Heightened Def Con from 0.00248065 +to 0.00248065
Heightened Def Con from 0.00248065 to 0.00248065
Heightened Def Con from 0.00248065 to 0.00248065
Heightened Def Con from 0.00248065 to 0.00248065
Heightened Def Con from 0.00248065 +to 0.00248065
Heightened Def Con from 0.00248065 to 0.00248065
Heightened Def Con from 0.00248065 to 0.00248065
Heightened Def Con from 0.00248065 to 0.00248065
Heightened Def Con from 0.00248065 to 0.00248065
Heightened Def Con from 0.00248065 +to 0.00248065
Heightened Def Con from 0.00248065 to 0.00248065
Heightened Def Con from 0.00248065 to 0.00248065
Heightened Def Con from 0.00248065 to 0.00248065
Heightened Def Con from 0.00248065 to 0.00248065
Heightened Def Con from 0.00248065 to 0.00248065
Heightened Def Con from 0.00248065 to 0.00248065
Heightened Def Con from 0.00248065 to 0.00248065
Heightened Def Con from 0.00248065 to 0.00248065
Heightened Def Con from 0.00248065 to 0.00248065
Heightened Def Con from 0.00248065 to 0.00248065
Heightened Def Con from 0.00248065 to 0.00248065
Heightened Def Con from 0.00248065 +to 0.00248065
Heightened Def Con from 0.00248065 to 0.00248065
Heightened Def Con from 0.00248065 +to 0.00248065
Heightened Def Con from 0.00248065 to 0.00248065
Heightened Def Con from 0.00248065 +++to 0.00248065
Heightened Def Con from 0.00248065 to 0.00248065
Heightened Def Con from 0.00248065 +to 0.00248065
Heightened Def Con from 0.00248065 to 0.00248065
Heightened Def Con from 0.00248065 +to 0.00248065
Heightened Def Con from 0.00248065 to 0.00248065
Heightened Def Con from 0.00248065 +to 0.00248065
Heightened Def Con from 0.00248065 +to 0.00248065
Heightened Def Con from 0.00248065 to 0.00248065
Heightened Def Con from 0.00248065 to 0.00248065
Heightened Def Con from 0.00248065 to 0.00248065
Heightened Def Con from 0.00248065 to 0.00248065
Heightened Def Con from 0.00248065 to 0.00248065
Heightened Def Con from 0.00248065 to 0.00248065
Heightened Def Con from 0.00248065 +to 0.00248065
Heightened Def Con from 0.00248065 +++to 0.00248065
Heightened Def Con from 0.00248065 to 0.00248065
Heightened Def Con from 0.00248065 to 0.00248065
Heightened Def Con from 0.00248065 to 0.00248065
Heightened Def Con from 0.00248065 to 0.00248065
Heightened Def Con from 0.00248065 to 0.00248065
Heightened Def Con from 0.00248065 to 0.00248065
Heightened Def Con from 0.00248065 to 0.00248065
Heightened Def Con from 0.00248065 to 0.00248065
Heightened Def Con from 0.00248065 to 0.00248065
Heightened Def Con from 0.00248065 to 0.00248065
Heightened Def Con from 0.00248065 to 0.00248065
Heightened Def Con from 0.00248065 to 0.00248065
Heightened Def Con from 0.00248065 to 0.00248065
Heightened Def Con from 0.00248065 to 0.00248065
Heightened Def Con from 0.00248065 to 0.00248065
Heightened Def Con from 0.00248065 to 0.00248065
Heightened Def Con from 0.00248065 to 0.00248065
Heightened Def Con from 0.00248065 to 0.00248065
Heightened Def Con from 0.00248065 to 0.00248065
Heightened Def Con from 0.00248065 to 0.00248065
Heightened Def Con from 0.00248065 to 0.00248065
Heightened Def Con from 0.00248065 to 0.00248065
Heightened Def Con from 0.00248065 to 0.00248065
Heightened Def Con from 0.00248065 +to 0.00248065
Heightened Def Con from 0.00248065 to 0.00248065
Heightened Def Con from 0.00248065 to 0.00248065
Heightened Def Con from 0.00248065 to 0.00248065
Heightened Def Con from 0.00248065 to 0.00248065
Heightened Def Con from 0.00248065 to 0.00248065
Heightened Def Con from 0.00248065 to 0.00248065
Heightened Def Con from 0.00248065 to 0.00248065
Heightened Def Con from 0.00248065 +to 0.00248065
Heightened Def Con from 0.00248065 to 0.00248065
Heightened Def Con from 0.00248065 to 0.00248065
Heightened Def Con from 0.00248065 to 0.00248065
Heightened Def Con from 0.00248065 to 0.00248065
Heightened Def Con from 0.00248065 to 0.00248065
Heightened Def Con from 0.00248065 +to 0.00248065
Heightened Def Con from 0.00248065 to 0.00248065
Heightened Def Con from 0.00248065 to 0.00248065
Heightened Def Con from 0.00248065 +to 0.00248065
Heightened Def Con from 0.00248065 to 0.00248065
Heightened Def Con from 0.00248065 to 0.00248065
Heightened Def Con from 0.00248065 to 0.00248065
Heightened Def Con from 0.00248065 to 0.00248065
Heightened Def Con from 0.00248065 to 0.00248065
Heightened Def Con from 0.00248065 to 0.00248065
Heightened Def Con from 0.00248065 to 0.00248065
Heightened Def Con from 0.00248065 to 0.00248065
Heightened Def Con from 0.00248065 to 0.00248065
Heightened Def Con from 0.00248065 to 0.00248065
Heightened Def Con from 0.00248065 +to 0.00248065
Heightened Def Con from 0.00248065 to 0.00248065
Heightened Def Con from 0.00248065 ++to 0.00248065
Heightened Def Con from 0.00248065 to 0.00248065
Heightened Def Con from 0.00248065 to 0.00248065
Heightened Def Con from 0.00248065 to 0.00248065
Heightened Def Con from 0.00248065 to 0.00248065
Heightened Def Con from 0.00248065 to 0.00248065
Heightened Def Con from 0.00248065 to 0.00248065
Heightened Def Con from 0.00248065 +to 0.00248065
Heightened Def Con from 0.00248065 to 0.00248065
Heightened Def Con from 0.00248065 to 0.00248065
Heightened Def Con from 0.00248065 to 0.00248065
Heightened Def Con from 0.00248065 to 0.00248065
Heightened Def Con from 0.00248065 to 0.00248065
Heightened Def Con from 0.00248065 to 0.00248065
Heightened Def Con from 0.00248065 to 0.00248065
Heightened Def Con from 0.00248065 to 0.00248065
Heightened Def Con from 0.00248065 to 0.00248065
Heightened Def Con from 0.00248065 +to 0.00248065
Heightened Def Con from 0.00248065 to 0.00248065
Heightened Def Con from 0.00248065 +to 0.00248065
Heightened Def Con from 0.00248065 to 0.00248065
Heightened Def Con from 0.00248065 to 0.00248065
Heightened Def Con from 0.00248065 +to 0.00248065
Heightened Def Con from 0.00248065 to 0.00248065
Heightened Def Con from 0.00248065 to 0.00248065
Heightened Def Con from 0.00248065 to 0.00248065
Heightened Def Con from 0.00248065 to 0.00248065
Heightened Def Con from 0.00248065 to 0.00248065
Heightened Def Con from 0.00248065 to 0.00248065
Heightened Def Con from 0.00248065 +to 0.00248065
Heightened Def Con from 0.00248065 to 0.00248065
Heightened Def Con from 0.00248065 to 0.00248065
Heightened Def Con from 0.00248065 +to 0.00248065
Heightened Def Con from 0.00248065 to 0.00248065

Date: Sun Apr 21 22:50:36 2024
Total elapsed time: 9.070 seconds.

tnom = 27
temp = 27
method = modified trap
totiter = 3278887
traniter = 3278366
tranpoints = 358739
accept = 135275
rejected = 243116
matrix size = 19
fillins = 4
solver = Normal
Matrix Compiler1: 1.22 KB object code size  0.3/0.1/[0.1]
Matrix Compiler2: off  [0.2]/0.2/0.2

